Transcript Start Time:  13:46:35, 22 Oct 2022 Türkiye Standart Saati 
Current Directory: "C:\Users\akten\Desktop\MST_UUV_2022\Barbaros USV\Barbaros_analiz"

Build Time: May 27 2022 08:52:58 EDT 
Executable Path: D:/Ansys/ANSYS Inc/ANSYS Student/v222/fluent/ntbin/win64/fluent.exe

-------------------------------------------------------------------------------
ID    Hostname  Core  O.S.         PID    Vendor                           
-------------------------------------------------------------------------------
n3    Akten     4/12  Windows-x64  14372  Intel(R) Core(TM) i7-10750H      
n2    Akten     3/12  Windows-x64  3592   Intel(R) Core(TM) i7-10750H      
n1    Akten     2/12  Windows-x64  18444  Intel(R) Core(TM) i7-10750H      
n0*   Akten     1/12  Windows-x64  21276  Intel(R) Core(TM) i7-10750H      
host  Akten           Windows-x64  20144  Intel(R) Core(TM) i7-10750H      

MPI Option Selected: intel
Selected system interconnect: default
-------------------------------------------------------------------------------

Cortex Process ID: 18112 
License Server Path: () 
Fast-loading "D:\Ansys\ANSYS Inc\ANSYS Student\v222\fluent\fluent22.2.0\\addons\afd\lib\hdfio.bin"
Done.
Multicore SMT processors detected. Processor affinity set!
Reading setting file in cache: "C:\Users\akten\Desktop\MST_UUV_2022\Barbaros USV\Barbaros_analiz\Analiz_files\dp0\FFF-3\Fluent\SYS.1.set"

Reading from Akten:"C:\Users\akten\Desktop\MST_UUV_2022\Barbaros USV\Barbaros_analiz\Analiz_files\dp0\FFF-3\Fluent\SYS.1-Setup-Output.cas.h5" in NODE0 mode ...
  Reading mesh ...
      442793 cells,     1 cell zone  ...
         442793 tetrahedral cells,  zone id: 3
      957660 faces,     6 face zones ...
          11186 triangular wall faces,  zone id: 1
         813512 triangular interior faces,  zone id: 2
           1372 triangular pressure-inlet faces,  zone id: 6
           1348 triangular pressure-outlet faces,  zone id: 7
           8028 triangular wall faces,  zone id: 8
         122214 triangular wall faces,  zone id: 9
      112903 nodes,     1 node zone  ...
  Done.



Building...
     mesh
	distributing mesh
		parts....,
		faces....,
		nodes....,
		cells....,
        bandwidth reduction using Reverse Cuthill-McKee: 110852/6502 = 17.0489
     materials,
     interface,
     domains,
	mixture
	phase-1
	phase-2
	interaction
     zones,
	solid  (phase-2)
	wall-solid  (phase-2)
	interior-solid  (phase-2)
	outlet  (phase-2)
	wall  (phase-2)
	hull  (phase-2)
	solid  (phase-1)
	wall-solid  (phase-1)
	interior-solid  (phase-1)
	outlet  (phase-1)
	wall  (phase-1)
	hull  (phase-1)
	inlet  (phase-1)
	inlet  (phase-2)
	hull
	wall
	outlet
	interior-solid
	wall-solid
	inlet
	solidSetting solid (mixture) ... Done.
Setting solid (phase-1) ... Done.
Setting solid (phase-2) ... Done.
 Setting zone id of solid to 3.
 Setting zone id of inlet to 6.
 Setting zone id of wall-solid to 1.
 Setting zone id of interior-solid to 2.
 Setting zone id of outlet to 7.
 Setting zone id of wall to 8.
 Setting zone id of hull to 9.
Done.
Setting solid (mixture) ... Done.
Setting inlet (mixture) ... Done.
Setting wall-solid (mixture) ... Done.
Setting interior-solid (mixture) ... Done.
Setting outlet (mixture) ... Done.
Setting wall (mixture) ... Done.
Setting hull (mixture) ... Done.
Setting inlet (phase-2) ... Done.
Setting inlet (phase-1) ... Done.
Setting hull (phase-1) ... Done.
Setting wall (phase-1) ... Done.
Setting outlet (phase-1) ... Done.
Setting interior-solid (phase-1) ... Done.
Setting wall-solid (phase-1) ... Done.
Setting solid (phase-1) ... Done.
Setting hull (phase-2) ... Done.
Setting wall (phase-2) ... Done.
Setting outlet (phase-2) ... Done.
Setting interior-solid (phase-2) ... Done.
Setting wall-solid (phase-2) ... Done.
Setting solid (phase-2) ... Done.

     parallel,
Done.

Preparing mesh for display...
Done.
Reading C:\\Users\\akten\\Desktop\\MST_UUV_2022\\Barbaros USV\\Barbaros_analiz\\Analiz_files\\dp0\\FFF-3\\Fluent\\SYS.1.ip...
Reading IP data ...
	x-coord
	y-coord
	z-coord
	pressure
	x-velocity
	y-velocity
	z-velocity
	k
	omega
	hyb_init-0
	hyb_init-1
	mp-1
	mp-2
  Done.
  Initializing values...
  Done.

 turbulent viscosity limited to viscosity ratio of 1.000000e+05 in 214900 cells 
Overwriting "C:\Users\akten\Desktop\MST_UUV_2022\Barbaros USV\Barbaros_analiz\Analiz_files\dp0\FFF-3\Fluent\.\\report-def-0-rfile.out"  of Report File "report-def-0-rfile"

  iter  continuity  x-velocity  y-velocity  z-velocity           k       omega  vf-phase-2     time/iter

 turbulent viscosity limited to viscosity ratio of 1.000000e+05 in 214900 cells 

 Reversed flow on 1191 faces of pressure-inlet 6.

 turbulent viscosity limited to viscosity ratio of 1.000000e+05 in 199859 cells 

 Reversed flow on 1033 faces of pressure-outlet 7.
     1  1.0000e+00  1.1118e-02  1.3284e-02  1.3077e-02  9.3423e-02  1.0477e-01  9.4579e-04  1:06:38 1999

 turbulent viscosity limited to viscosity ratio of 1.000000e+05 in 199859 cells 

 Reversed flow on 704 faces of pressure-inlet 6.

 turbulent viscosity limited to viscosity ratio of 1.000000e+05 in 198672 cells 

 Reversed flow on 1255 faces of pressure-outlet 7.
     2  3.2505e-01  5.4849e-03  6.6330e-03  6.8499e-03  8.6822e-02  1.0791e-01  2.1470e-04  1:06:36 1998

 turbulent viscosity limited to viscosity ratio of 1.000000e+05 in 198672 cells 

 Reversed flow on 703 faces of pressure-inlet 6.

 turbulent viscosity limited to viscosity ratio of 1.000000e+05 in 198081 cells 

 Reversed flow on 1276 faces of pressure-outlet 7.
     3  2.3318e-01  6.6665e-03  8.8546e-03  1.0541e-02  1.4047e-01  2.8549e-01  2.1238e-04  1:06:34 1997

 turbulent viscosity limited to viscosity ratio of 1.000000e+05 in 198081 cells 

 Reversed flow on 699 faces of pressure-inlet 6.

 turbulent viscosity limited to viscosity ratio of 1.000000e+05 in 197756 cells 

 Reversed flow on 1279 faces of pressure-outlet 7.
     4  1.8695e-01  8.5141e-03  1.1850e-02  1.3965e-02  2.4774e-01  3.5464e-01  2.2329e-04  0:59:53 1996

 turbulent viscosity limited to viscosity ratio of 1.000000e+05 in 197756 cells 

 Reversed flow on 715 faces of pressure-inlet 6.

 turbulent viscosity limited to viscosity ratio of 1.000000e+05 in 197881 cells 

 Reversed flow on 1275 faces of pressure-outlet 7.
     5  1.6581e-01  1.1507e-02  1.4952e-02  1.7829e-02  3.7373e-01  3.0268e-01  2.3294e-04  1:01:11 1995

 turbulent viscosity limited to viscosity ratio of 1.000000e+05 in 197881 cells 

 Reversed flow on 735 faces of pressure-inlet 6.

 turbulent viscosity limited to viscosity ratio of 1.000000e+05 in 198356 cells 

 Reversed flow on 1261 faces of pressure-outlet 7.
     6  1.5329e-01  1.2331e-02  1.6646e-02  1.7178e-02  3.3916e-01  3.0463e-01  2.2007e-04  1:02:13 1994

 turbulent viscosity limited to viscosity ratio of 1.000000e+05 in 198356 cells 

 Reversed flow on 757 faces of pressure-inlet 6.

 turbulent viscosity limited to viscosity ratio of 1.000000e+05 in 198901 cells 

 Reversed flow on 1227 faces of pressure-outlet 7.
     7  1.4899e-01  1.0498e-02  1.2604e-02  1.6047e-02  2.0605e-01  2.2323e-01  2.1443e-04  1:03:02 1993

 turbulent viscosity limited to viscosity ratio of 1.000000e+05 in 198901 cells 

 Reversed flow on 780 faces of pressure-inlet 6.

 turbulent viscosity limited to viscosity ratio of 1.000000e+05 in 199462 cells 

 Reversed flow on 1183 faces of pressure-outlet 7.
     8  1.4409e-01  9.9024e-03  1.1547e-02  1.3888e-02  2.9620e-01  2.8409e-01  2.2425e-04  1:03:41 1992

 turbulent viscosity limited to viscosity ratio of 1.000000e+05 in 199462 cells 

 Reversed flow on 803 faces of pressure-inlet 6.

 turbulent viscosity limited to viscosity ratio of 1.000000e+05 in 200095 cells 

 Reversed flow on 1060 faces of pressure-outlet 7.
     9  1.4359e-01  1.1799e-02  1.4449e-02  1.6882e-02  3.6244e-01  2.8398e-01  2.5562e-04  1:04:12 1991

 turbulent viscosity limited to viscosity ratio of 1.000000e+05 in 200095 cells 

 Reversed flow on 822 faces of pressure-inlet 6.

 turbulent viscosity limited to viscosity ratio of 1.000000e+05 in 200832 cells 

 Reversed flow on 831 faces of pressure-outlet 7.
    10  1.4869e-01  1.6784e-02  1.8206e-02  1.8701e-02  3.4460e-01  2.7406e-01  2.3406e-04  1:04:36 1990

 turbulent viscosity limited to viscosity ratio of 1.000000e+05 in 200832 cells 

 Reversed flow on 841 faces of pressure-inlet 6.

 turbulent viscosity limited to viscosity ratio of 1.000000e+05 in 201777 cells 

 Reversed flow on 674 faces of pressure-outlet 7.
    11  1.5365e-01  1.3815e-02  1.6286e-02  1.5764e-02  3.6999e-01  2.5965e-01  2.6779e-04  1:04:55 1989

 turbulent viscosity limited to viscosity ratio of 1.000000e+05 in 201777 cells 

 Reversed flow on 850 faces of pressure-inlet 6.

 turbulent viscosity limited to viscosity ratio of 1.000000e+05 in 202592 cells 

 Reversed flow on 629 faces of pressure-outlet 7.

  iter  continuity  x-velocity  y-velocity  z-velocity           k       omega  vf-phase-2     time/iter
    12  1.5323e-01  3.2340e-02  3.2455e-02  3.0605e-02  5.2409e-01  3.4084e-01  2.5675e-04  0:58:32 1988

 turbulent viscosity limited to viscosity ratio of 1.000000e+05 in 202592 cells 

 Reversed flow on 860 faces of pressure-inlet 6.

 turbulent viscosity limited to viscosity ratio of 1.000000e+05 in 203563 cells 

 Reversed flow on 614 faces of pressure-outlet 7.
    13  1.5575e-01  2.7135e-02  3.2424e-02  3.3144e-02  8.8100e-01  3.5367e-01  2.9455e-04  1:00:03 1987

 turbulent viscosity limited to viscosity ratio of 1.000000e+05 in 203563 cells 

 Reversed flow on 878 faces of pressure-inlet 6.

 turbulent viscosity limited to viscosity ratio of 1.000000e+05 in 204850 cells 

 Reversed flow on 601 faces of pressure-outlet 7.
    14  1.5947e-01  2.3687e-02  2.4442e-02  3.2250e-02  3.5179e-01  3.6070e-01  3.8903e-04  1:07:52 1986

 turbulent viscosity limited to viscosity ratio of 1.000000e+05 in 204850 cells 

 Reversed flow on 896 faces of pressure-inlet 6.

 turbulent viscosity limited to viscosity ratio of 1.000000e+05 in 206386 cells 

 Reversed flow on 596 faces of pressure-outlet 7.
    15  1.8447e-01  2.4922e-02  2.7274e-02  3.0357e-02  3.7668e-01  2.8371e-01  5.4397e-04  1:07:30 1985

 turbulent viscosity limited to viscosity ratio of 1.000000e+05 in 206386 cells 

 Reversed flow on 917 faces of pressure-inlet 6.

 turbulent viscosity limited to viscosity ratio of 1.000000e+05 in 204014 cells 

 Reversed flow on 600 faces of pressure-outlet 7.
    16  2.5156e-01  2.4303e-02  3.0117e-02  3.7164e-02  3.1226e-01  5.5829e-01  2.1907e-03  1:33:39 1984

 turbulent viscosity limited to viscosity ratio of 1.000000e+05 in 204014 cells 

 Reversed flow on 587 faces of pressure-inlet 6.

 turbulent viscosity limited to viscosity ratio of 1.000000e+05 in 193616 cells 

 Reversed flow on 1302 faces of pressure-outlet 7.
    17  9.0006e-01  1.9737e-02  3.1428e-02  3.9452e-02  2.4859e-01  2.6793e-01  3.0036e-03  1:28:06 1983

 turbulent viscosity limited to viscosity ratio of 1.000000e+05 in 193616 cells 

 Reversed flow on 286 faces of pressure-inlet 6.

 turbulent viscosity limited to viscosity ratio of 1.000000e+05 in 194878 cells 

 Reversed flow on 1309 faces of pressure-outlet 7.
    18  1.0753e+00  2.0100e-02  2.7724e-02  3.5748e-02  3.7851e-01  3.0944e-01  2.2207e-03  1:23:40 1982

 turbulent viscosity limited to viscosity ratio of 1.000000e+05 in 194878 cells 

 Reversed flow on 48 faces of pressure-inlet 6.

 turbulent viscosity limited to viscosity ratio of 1.000000e+05 in 201938 cells 

 Reversed flow on 1301 faces of pressure-outlet 7.
    19  6.9305e-01  2.2920e-02  2.5306e-02  3.2556e-02  9.1858e-01  3.9848e-01  1.0038e-03  1:20:06 1981

 turbulent viscosity limited to viscosity ratio of 1.000000e+05 in 201938 cells 

 Reversed flow on 431 faces of pressure-inlet 6.

 turbulent viscosity limited to viscosity ratio of 1.000000e+05 in 206057 cells 

 Reversed flow on 986 faces of pressure-outlet 7.
    20  8.5749e-01  3.0926e-02  2.2979e-02  2.5479e-02  4.0225e-01  3.1924e-01  7.0093e-04  1:17:15 1980

 turbulent viscosity limited to viscosity ratio of 1.000000e+05 in 206057 cells 

 Reversed flow on 828 faces of pressure-inlet 6.

 turbulent viscosity limited to viscosity ratio of 1.000000e+05 in 209077 cells 

 Reversed flow on 589 faces of pressure-outlet 7.
    21  8.0606e-01  3.1178e-02  3.4286e-02  3.6760e-02  6.9942e-01  3.2972e-01  6.3726e-04  1:14:58 1979

 turbulent viscosity limited to viscosity ratio of 1.000000e+05 in 209077 cells 

 Reversed flow on 984 faces of pressure-inlet 6.

 turbulent viscosity limited to viscosity ratio of 1.000000e+05 in 209556 cells 

 Reversed flow on 482 faces of pressure-outlet 7.
    22  7.8608e-01  2.9522e-02  3.6893e-02  3.2652e-02  4.7008e-01  3.6273e-01  5.8205e-04  1:13:08 1978

 turbulent viscosity limited to viscosity ratio of 1.000000e+05 in 209556 cells 

 Reversed flow on 1274 faces of pressure-inlet 6.

 turbulent viscosity limited to viscosity ratio of 1.000000e+05 in 207538 cells 

 Reversed flow on 219 faces of pressure-outlet 7.

  iter  continuity  x-velocity  y-velocity  z-velocity           k       omega  vf-phase-2     time/iter
    23  8.1627e-01  2.7749e-02  3.0365e-02  3.2348e-02  4.8140e-01  3.1112e-01  6.4130e-04  1:11:39 1977

 turbulent viscosity limited to viscosity ratio of 1.000000e+05 in 207538 cells 

 Reversed flow on 1327 faces of pressure-inlet 6.

 turbulent viscosity limited to viscosity ratio of 1.000000e+05 in 204133 cells 

 Reversed flow on 79 faces of pressure-outlet 7.
    24  8.5275e-01  3.1210e-02  3.8633e-02  3.5943e-02  4.9880e-01  4.7705e-01  6.4712e-04  1:10:28 1976

 turbulent viscosity limited to viscosity ratio of 1.000000e+05 in 204133 cells 

 Reversed flow on 1349 faces of pressure-inlet 6.

 turbulent viscosity limited to viscosity ratio of 1.000000e+05 in 200190 cells 

 Reversed flow on 45 faces of pressure-outlet 7.
    25  8.4643e-01  3.7618e-02  3.9487e-02  4.1899e-02  7.0232e-01  3.4960e-01  6.1424e-04  1:02:56 1975

 turbulent viscosity limited to viscosity ratio of 1.000000e+05 in 200190 cells 

 Reversed flow on 1357 faces of pressure-inlet 6.

 turbulent viscosity limited to viscosity ratio of 1.000000e+05 in 196381 cells 

 Reversed flow on 28 faces of pressure-outlet 7.
    26  7.8686e-01  3.2130e-02  3.3295e-02  3.6687e-02  5.9543e-01  2.6704e-01  6.3926e-04  1:03:29 1974

 turbulent viscosity limited to viscosity ratio of 1.000000e+05 in 196381 cells 

 Reversed flow on 1362 faces of pressure-inlet 6.

 turbulent viscosity limited to viscosity ratio of 1.000000e+05 in 192867 cells 

 Reversed flow on 21 faces of pressure-outlet 7.
    27  7.4208e-01  2.8890e-02  2.9610e-02  3.2781e-02  3.5672e-01  2.1985e-01  6.7143e-04  1:03:55 1973

 turbulent viscosity limited to viscosity ratio of 1.000000e+05 in 192867 cells 

 Reversed flow on 1364 faces of pressure-inlet 6.

 turbulent viscosity limited to viscosity ratio of 1.000000e+05 in 190110 cells 

 Reversed flow on 18 faces of pressure-outlet 7.
    28  7.1589e-01  2.6817e-02  2.8859e-02  2.8495e-02  4.3162e-01  2.1332e-01  7.4801e-04  1:04:15 1972

 turbulent viscosity limited to viscosity ratio of 1.000000e+05 in 190110 cells 

 Reversed flow on 1366 faces of pressure-inlet 6.

 turbulent viscosity limited to viscosity ratio of 1.000000e+05 in 187970 cells 

 Reversed flow on 10 faces of pressure-outlet 7.
    29  7.2130e-01  2.4691e-02  2.6624e-02  2.6415e-02  3.0106e-01  2.3766e-01  7.9605e-04  1:04:31 1971

 turbulent viscosity limited to viscosity ratio of 1.000000e+05 in 187970 cells 

 Reversed flow on 1368 faces of pressure-inlet 6.

 turbulent viscosity limited to viscosity ratio of 1.000000e+05 in 186139 cells 

 Reversed flow on 9 faces of pressure-outlet 7.
    30  7.1786e-01  2.9039e-02  2.7561e-02  2.7096e-02  3.4279e-01  2.9136e-01  8.6449e-04  1:04:43 1970

 turbulent viscosity limited to viscosity ratio of 1.000000e+05 in 186139 cells 

 Reversed flow on 1369 faces of pressure-inlet 6.

 turbulent viscosity limited to viscosity ratio of 1.000000e+05 in 184606 cells 

 Reversed flow on 9 faces of pressure-outlet 7.
    31  7.4809e-01  2.7026e-02  2.7211e-02  2.7665e-02  4.7050e-01  4.3852e-01  1.2248e-03  1:04:52 1969

 turbulent viscosity limited to viscosity ratio of 1.000000e+05 in 184606 cells 

 Reversed flow on 1371 faces of pressure-inlet 6.

 turbulent viscosity limited to viscosity ratio of 1.000000e+05 in 183476 cells 

 Reversed flow on 7 faces of pressure-outlet 7.
    32  7.5552e-01  3.2805e-02  4.6274e-02  3.0158e-02  6.0202e-01  4.1864e-01  1.3604e-03  1:11:33 1968

 turbulent viscosity limited to viscosity ratio of 1.000000e+05 in 183476 cells 

 Reversed flow on 1366 faces of pressure-inlet 6.

 turbulent viscosity limited to viscosity ratio of 1.000000e+05 in 185554 cells 

 Reversed flow on 15 faces of pressure-outlet 7.
    33  1.9444e+00  1.5330e-02  2.8234e-02  1.6821e-02  3.6006e-01  2.5771e-01  9.0225e-04  1:10:20 1967

 turbulent viscosity limited to viscosity ratio of 1.000000e+05 in 185554 cells 

 Reversed flow on 1361 faces of pressure-inlet 6.

 turbulent viscosity limited to viscosity ratio of 1.000000e+05 in 186485 cells 

 Reversed flow on 20 faces of pressure-outlet 7.

  iter  continuity  x-velocity  y-velocity  z-velocity           k       omega  vf-phase-2     time/iter
    34  1.7478e+00  2.7499e-02  3.6210e-02  2.8780e-02  4.6805e-01  2.6591e-01  7.9066e-04  1:09:20 1966

 turbulent viscosity limited to viscosity ratio of 1.000000e+05 in 186485 cells 

 Reversed flow on 1365 faces of pressure-inlet 6.

 turbulent viscosity limited to viscosity ratio of 1.000000e+05 in 186300 cells 

 Reversed flow on 18 faces of pressure-outlet 7.
    35  1.4793e+00  2.1792e-02  2.8086e-02  2.2814e-02  3.9422e-01  2.8993e-01  9.1266e-04  1:08:33 1965

 turbulent viscosity limited to viscosity ratio of 1.000000e+05 in 186300 cells 

 Reversed flow on 1368 faces of pressure-inlet 6.

 turbulent viscosity limited to viscosity ratio of 1.000000e+05 in 187299 cells 

 Reversed flow on 11 faces of pressure-outlet 7.
    36  1.2310e+00  2.7929e-02  2.3368e-02  2.0314e-02  4.4149e-01  3.8358e-01  7.1094e-04  1:21:00 1964

 turbulent viscosity limited to viscosity ratio of 1.000000e+05 in 187299 cells 

 Reversed flow on 1371 faces of pressure-inlet 6.

 turbulent viscosity limited to viscosity ratio of 1.000000e+05 in 187827 cells 

 Reversed flow on 3 faces of pressure-outlet 7.
    37  2.4791e+00  3.9495e-02  3.5704e-02  2.6801e-02  3.8540e-01  2.8699e-01  5.3719e-04  1:17:51 1963

 turbulent viscosity limited to viscosity ratio of 1.000000e+05 in 187827 cells 

 Reversed flow on 1372 faces of pressure-inlet 6.

 turbulent viscosity limited to viscosity ratio of 1.000000e+05 in 179632 cells 

 Reversed flow on 1 face of pressure-outlet 7.
    38  2.2492e+00  4.6589e-02  4.2186e-02  4.0928e-02  9.6717e-01  8.7218e-01  1.3907e-03  1:15:20 1962

 turbulent viscosity limited to viscosity ratio of 1.000000e+05 in 179632 cells 

 Reversed flow on 1372 faces of pressure-inlet 6.

 turbulent viscosity limited to viscosity ratio of 1.000000e+05 in 180102 cells 
    39  3.0323e+00  4.9114e-02  2.8060e-02  2.5117e-02  5.2554e-01  4.6864e-01  2.7679e-04  1:13:18 1961

 turbulent viscosity limited to viscosity ratio of 1.000000e+05 in 180102 cells 

 Reversed flow on 1372 faces of pressure-inlet 6.

 turbulent viscosity limited to viscosity ratio of 1.000000e+05 in 178789 cells 
    40  2.8762e+00  5.3973e-02  4.0711e-02  4.8607e-02  4.6469e-01  3.9610e-01  2.1827e-04  1:11:41 1960

 turbulent viscosity limited to viscosity ratio of 1.000000e+05 in 178789 cells 

 Reversed flow on 1372 faces of pressure-inlet 6.

 turbulent viscosity limited to viscosity ratio of 1.000000e+05 in 177391 cells 
    41  2.2590e+00  4.8470e-02  3.2557e-02  4.1744e-02  3.4563e-01  3.1167e-01  2.0749e-04  1:10:22 1959

 turbulent viscosity limited to viscosity ratio of 1.000000e+05 in 177391 cells 

 Reversed flow on 1372 faces of pressure-inlet 6.

 turbulent viscosity limited to viscosity ratio of 1.000000e+05 in 175256 cells 
    42  2.2372e+00  4.2711e-02  3.1072e-02  3.6417e-02  3.2228e-01  2.9034e-01  2.0712e-04  1:09:19 1958

 turbulent viscosity limited to viscosity ratio of 1.000000e+05 in 175256 cells 

 Reversed flow on 1372 faces of pressure-inlet 6.

 turbulent viscosity limited to viscosity ratio of 1.000000e+05 in 173803 cells 
    43  2.3049e+00  3.6068e-02  2.6895e-02  3.1895e-02  2.6418e-01  2.2978e-01  2.0296e-04  1:08:29 1957

 turbulent viscosity limited to viscosity ratio of 1.000000e+05 in 173803 cells 

 Reversed flow on 1372 faces of pressure-inlet 6.

 turbulent viscosity limited to viscosity ratio of 1.000000e+05 in 172550 cells 
    44  2.2381e+00  3.2858e-02  2.6751e-02  2.9608e-02  2.0600e-01  2.0825e-01  2.0111e-04  1:07:48 1956

 turbulent viscosity limited to viscosity ratio of 1.000000e+05 in 172550 cells 

 Reversed flow on 1372 faces of pressure-inlet 6.

 turbulent viscosity limited to viscosity ratio of 1.000000e+05 in 171682 cells 

  iter  continuity  x-velocity  y-velocity  z-velocity           k       omega  vf-phase-2     time/iter
    45  2.1218e+00  3.1432e-02  2.4762e-02  2.8596e-02  2.6173e-01  2.5281e-01  1.8843e-04  1:07:14 1955

 turbulent viscosity limited to viscosity ratio of 1.000000e+05 in 171682 cells 

 Reversed flow on 1372 faces of pressure-inlet 6.

 turbulent viscosity limited to viscosity ratio of 1.000000e+05 in 171173 cells 
    46  2.1070e+00  3.1352e-02  2.6778e-02  3.1293e-02  4.1516e-01  3.5764e-01  1.9076e-04  1:06:48 1954

 turbulent viscosity limited to viscosity ratio of 1.000000e+05 in 171173 cells 

 Reversed flow on 1372 faces of pressure-inlet 6.

 turbulent viscosity limited to viscosity ratio of 1.000000e+05 in 170335 cells 
    47  2.1555e+00  3.1240e-02  2.6432e-02  3.6601e-02  3.7963e-01  2.7796e-01  1.9120e-04  0:59:55 1953

 turbulent viscosity limited to viscosity ratio of 1.000000e+05 in 170335 cells 

 Reversed flow on 1372 faces of pressure-inlet 6.

 turbulent viscosity limited to viscosity ratio of 1.000000e+05 in 169543 cells 
    48  2.0589e+00  2.8689e-02  2.4150e-02  3.0036e-02  3.2244e-01  2.1334e-01  1.9232e-04  1:00:55 1952

 turbulent viscosity limited to viscosity ratio of 1.000000e+05 in 169543 cells 

 Reversed flow on 1372 faces of pressure-inlet 6.

 turbulent viscosity limited to viscosity ratio of 1.000000e+05 in 168840 cells 
    49  1.9618e+00  2.4900e-02  2.2750e-02  2.7052e-02  2.3530e-01  1.9556e-01  2.1226e-04  1:01:43 1951

 turbulent viscosity limited to viscosity ratio of 1.000000e+05 in 168840 cells 

 Reversed flow on 1372 faces of pressure-inlet 6.

 turbulent viscosity limited to viscosity ratio of 1.000000e+05 in 169961 cells 
    50  2.1817e+00  2.4085e-02  2.7945e-02  2.7305e-02  4.1794e-01  4.2801e-01  2.3105e-04  1:08:51 1950

 turbulent viscosity limited to viscosity ratio of 1.000000e+05 in 169961 cells 

 Reversed flow on 1372 faces of pressure-inlet 6.

 turbulent viscosity limited to viscosity ratio of 1.000000e+05 in 170655 cells 
    51  2.6845e+00  2.2704e-02  2.3860e-02  2.5446e-02  2.6966e-01  2.9930e-01  2.6483e-04  1:08:03 1949

 turbulent viscosity limited to viscosity ratio of 1.000000e+05 in 170655 cells 

 Reversed flow on 1372 faces of pressure-inlet 6.

 turbulent viscosity limited to viscosity ratio of 1.000000e+05 in 169729 cells 
    52  3.2128e+00  2.1562e-02  2.2532e-02  2.2749e-02  4.6219e-01  2.9958e-01  1.8460e-04  1:07:24 1948

 turbulent viscosity limited to viscosity ratio of 1.000000e+05 in 169729 cells 

 Reversed flow on 1372 faces of pressure-inlet 6.

 turbulent viscosity limited to viscosity ratio of 1.000000e+05 in 169112 cells 
    53  3.5108e+00  2.2039e-02  2.4128e-02  2.4137e-02  3.1294e-01  3.7495e-01  1.8546e-04  1:06:52 1947

 turbulent viscosity limited to viscosity ratio of 1.000000e+05 in 169112 cells 

 Reversed flow on 1372 faces of pressure-inlet 6.

 turbulent viscosity limited to viscosity ratio of 1.000000e+05 in 168977 cells 
    54  2.7169e+00  1.5323e-02  1.6258e-02  1.5923e-02  3.5182e-01  5.1046e-01  8.0540e-05  1:06:26 1946

 turbulent viscosity limited to viscosity ratio of 1.000000e+05 in 168977 cells 

 Reversed flow on 1372 faces of pressure-inlet 6.

 turbulent viscosity limited to viscosity ratio of 1.000000e+05 in 168839 cells 
    55  2.6775e+00  1.4852e-02  1.6616e-02  1.7439e-02  3.0116e-01  3.4619e-01  8.0996e-05  1:06:05 1945

 turbulent viscosity limited to viscosity ratio of 1.000000e+05 in 168839 cells 

 Reversed flow on 1372 faces of pressure-inlet 6.

 turbulent viscosity limited to viscosity ratio of 1.000000e+05 in 168741 cells 

  iter  continuity  x-velocity  y-velocity  z-velocity           k       omega  vf-phase-2     time/iter
    56  2.6872e+00  1.4016e-02  1.9682e-02  1.7909e-02  3.9258e-01  3.4211e-01  8.1794e-05  0:59:20 1944

 turbulent viscosity limited to viscosity ratio of 1.000000e+05 in 168741 cells 

 Reversed flow on 1372 faces of pressure-inlet 6.

 turbulent viscosity limited to viscosity ratio of 1.000000e+05 in 167799 cells 
    57  2.7005e+00  1.4259e-02  1.8231e-02  1.6139e-02  2.0847e-01  2.6220e-01  8.8879e-05  1:06:52 1943

 turbulent viscosity limited to viscosity ratio of 1.000000e+05 in 167799 cells 

 Reversed flow on 1372 faces of pressure-inlet 6.

 turbulent viscosity limited to viscosity ratio of 1.000000e+05 in 164497 cells 
    58  2.6507e+00  2.0502e-02  2.3854e-02  1.6783e-02  4.0280e-01  3.0532e-01  9.6136e-05  1:06:25 1942

 turbulent viscosity limited to viscosity ratio of 1.000000e+05 in 164497 cells 

 Reversed flow on 1372 faces of pressure-inlet 6.

 turbulent viscosity limited to viscosity ratio of 1.000000e+05 in 163202 cells 
    59  3.2740e+00  1.9382e-02  2.2559e-02  2.0085e-02  3.4816e-01  2.9893e-01  9.1446e-05  1:06:03 1941

 turbulent viscosity limited to viscosity ratio of 1.000000e+05 in 163202 cells 

 Reversed flow on 1372 faces of pressure-inlet 6.

 turbulent viscosity limited to viscosity ratio of 1.000000e+05 in 167681 cells 
    60  3.0495e+00  1.5597e-02  1.9122e-02  1.5083e-02  3.5868e-01  2.5720e-01  8.9762e-05  1:12:12 1940

 turbulent viscosity limited to viscosity ratio of 1.000000e+05 in 167681 cells 

 Reversed flow on 1372 faces of pressure-inlet 6.

 turbulent viscosity limited to viscosity ratio of 1.000000e+05 in 165595 cells 
    61  4.1288e+00  2.8068e-02  5.1419e-02  2.8294e-02  6.5555e-01  5.7948e-01  1.1200e-04  1:17:08 1939

 turbulent viscosity limited to viscosity ratio of 1.000000e+05 in 165595 cells 

 Reversed flow on 1372 faces of pressure-inlet 6.

 turbulent viscosity limited to viscosity ratio of 1.000000e+05 in 164807 cells 
    62  4.5810e+00  2.7894e-02  3.0263e-02  2.5278e-02  3.3690e-01  3.1665e-01  9.7648e-05  1:08:08 1938

 turbulent viscosity limited to viscosity ratio of 1.000000e+05 in 164807 cells 

 Reversed flow on 1372 faces of pressure-inlet 6.

 turbulent viscosity limited to viscosity ratio of 1.000000e+05 in 152947 cells 
    63  6.8516e+00  2.0950e-02  2.4160e-02  2.2355e-02  9.8060e+00  1.8464e+01  3.3872e-04  1:13:51 1937

 turbulent viscosity limited to viscosity ratio of 1.000000e+05 in 152947 cells 

 Reversed flow on 1372 faces of pressure-inlet 6.

 turbulent viscosity limited to viscosity ratio of 1.000000e+05 in 111875 cells 
    64  1.6754e+01  2.3526e-02  1.2996e-01  7.7564e-02  9.9556e-01  5.0246e-01  5.7372e-04  1:24:52 1936

 turbulent viscosity limited to viscosity ratio of 1.000000e+05 in 111875 cells 

 Reversed flow on 1372 faces of pressure-inlet 6.

 turbulent viscosity limited to viscosity ratio of 1.000000e+05 in 110631 cells 
    65  4.5723e+01  2.3957e-02  4.8023e-02  3.0105e-02  8.0970e-01  5.0635e-01  7.0969e-05  1:27:12 1935

 turbulent viscosity limited to viscosity ratio of 1.000000e+05 in 110631 cells 

 Reversed flow on 1372 faces of pressure-inlet 6.

 turbulent viscosity limited to viscosity ratio of 1.000000e+05 in 105540 cells 
    66  8.0066e+01  4.7543e-02  1.1027e-01  1.0717e-01  1.0527e+00  5.0270e-01  7.5722e-05  1:29:04 1934

 turbulent viscosity limited to viscosity ratio of 1.000000e+05 in 105540 cells 

 Reversed flow on 1372 faces of pressure-inlet 6.

 turbulent viscosity limited to viscosity ratio of 1.000000e+05 in 102251 cells 

  iter  continuity  x-velocity  y-velocity  z-velocity           k       omega  vf-phase-2     time/iter
    67  7.9034e+01  4.3232e-02  7.4278e-02  9.6353e-02  8.8405e-01  4.9514e-01  6.8896e-05  1:24:06 1933

 turbulent viscosity limited to viscosity ratio of 1.000000e+05 in 102251 cells 

 Reversed flow on 1372 faces of pressure-inlet 6.

 turbulent viscosity limited to viscosity ratio of 1.000000e+05 in 100502 cells 
    68  7.7629e+01  4.7632e-02  6.3807e-02  1.4572e-01  5.6661e-01  5.1253e-01  5.7139e-05  1:20:08 1932

 turbulent viscosity limited to viscosity ratio of 1.000000e+05 in 100502 cells 

 Reversed flow on 1372 faces of pressure-inlet 6.

 turbulent viscosity limited to viscosity ratio of 1.000000e+05 in 99602 cells 
    69  6.5208e+01  7.1117e-02  8.9195e-02  1.2977e-01  4.2392e-01  5.2392e-01  5.9990e-05  1:10:30 1931

 turbulent viscosity limited to viscosity ratio of 1.000000e+05 in 99602 cells 

 Reversed flow on 1372 faces of pressure-inlet 6.

 turbulent viscosity limited to viscosity ratio of 1.000000e+05 in 98998 cells 
    70  6.1355e+01  6.0526e-02  7.0745e-02  1.0437e-01  7.2998e-01  4.7008e-01  5.7996e-05  1:09:14 1930

 turbulent viscosity limited to viscosity ratio of 1.000000e+05 in 98998 cells 

 Reversed flow on 1372 faces of pressure-inlet 6.

 turbulent viscosity limited to viscosity ratio of 1.000000e+05 in 98540 cells 
    71  6.1306e+01  5.0745e-02  5.7441e-02  9.6383e-02  6.9883e-01  4.9441e-01  5.8795e-05  1:08:13 1929

 turbulent viscosity limited to viscosity ratio of 1.000000e+05 in 98540 cells 

 Reversed flow on 1372 faces of pressure-inlet 6.

 turbulent viscosity limited to viscosity ratio of 1.000000e+05 in 98297 cells 
    72  5.6421e+01  4.5912e-02  8.3508e-02  8.5386e-02  4.8034e-01  4.3616e-01  6.3604e-05  1:07:24 1928

 turbulent viscosity limited to viscosity ratio of 1.000000e+05 in 98297 cells 

 Reversed flow on 1372 faces of pressure-inlet 6.

 turbulent viscosity limited to viscosity ratio of 1.000000e+05 in 98285 cells 
    73  5.3248e+01  4.7369e-02  5.2276e-02  1.1295e-01  4.1925e-01  3.7472e-01  6.6828e-05  1:06:45 1927

 turbulent viscosity limited to viscosity ratio of 1.000000e+05 in 98285 cells 

 Reversed flow on 1372 faces of pressure-inlet 6.

 turbulent viscosity limited to viscosity ratio of 1.000000e+05 in 98476 cells 
    74  5.1832e+01  4.8685e-02  5.5511e-02  9.1349e-02  5.3304e-01  3.0964e-01  6.8869e-05  0:59:47 1926

 turbulent viscosity limited to viscosity ratio of 1.000000e+05 in 98476 cells 

 Reversed flow on 1372 faces of pressure-inlet 6.

 turbulent viscosity limited to viscosity ratio of 1.000000e+05 in 98888 cells 
    75  4.9075e+01  5.7064e-02  5.4838e-02  7.6679e-02  8.4813e-01  2.7889e-01  7.0999e-05  1:00:38 1925

 turbulent viscosity limited to viscosity ratio of 1.000000e+05 in 98888 cells 

 Reversed flow on 1372 faces of pressure-inlet 6.

 turbulent viscosity limited to viscosity ratio of 1.000000e+05 in 99496 cells 
    76  4.6304e+01  5.2283e-02  4.7594e-02  6.6278e-02  6.8759e-01  2.9270e-01  7.3484e-05  1:01:19 1924

 turbulent viscosity limited to viscosity ratio of 1.000000e+05 in 99496 cells 

 Reversed flow on 1372 faces of pressure-inlet 6.

 turbulent viscosity limited to viscosity ratio of 1.000000e+05 in 100215 cells 
    77  4.2863e+01  4.0007e-02  3.9363e-02  5.2027e-02  4.1598e-01  2.3265e-01  7.3465e-05  1:01:51 1923

 turbulent viscosity limited to viscosity ratio of 1.000000e+05 in 100215 cells 

 Reversed flow on 1372 faces of pressure-inlet 6.

 turbulent viscosity limited to viscosity ratio of 1.000000e+05 in 100940 cells 

  iter  continuity  x-velocity  y-velocity  z-velocity           k       omega  vf-phase-2     time/iter
    78  4.2941e+01  4.0184e-02  3.8686e-02  4.8523e-02  4.1667e-01  2.1457e-01  7.6032e-05  0:55:51 1922

 turbulent viscosity limited to viscosity ratio of 1.000000e+05 in 100940 cells 

 Reversed flow on 1372 faces of pressure-inlet 6.

 turbulent viscosity limited to viscosity ratio of 1.000000e+05 in 101742 cells 
    79  4.2933e+01  3.8397e-02  3.5419e-02  4.0329e-02  4.3481e-01  2.1778e-01  7.7944e-05  0:57:28 1921

 turbulent viscosity limited to viscosity ratio of 1.000000e+05 in 101742 cells 

 Reversed flow on 1372 faces of pressure-inlet 6.

 turbulent viscosity limited to viscosity ratio of 1.000000e+05 in 102550 cells 
    80  4.1996e+01  3.3629e-02  2.9693e-02  3.5426e-02  3.7704e-01  1.8765e-01  7.8625e-05  0:52:21 1920

 turbulent viscosity limited to viscosity ratio of 1.000000e+05 in 102550 cells 

 Reversed flow on 1372 faces of pressure-inlet 6.

 turbulent viscosity limited to viscosity ratio of 1.000000e+05 in 103415 cells 
    81  4.1429e+01  2.9885e-02  2.8466e-02  3.5288e-02  3.3970e-01  2.3703e-01  8.1257e-05  1:01:03 1919

 turbulent viscosity limited to viscosity ratio of 1.000000e+05 in 103415 cells 

 Reversed flow on 1372 faces of pressure-inlet 6.

 turbulent viscosity limited to viscosity ratio of 1.000000e+05 in 104312 cells 
    82  4.1819e+01  2.7538e-02  2.5361e-02  3.1050e-02  4.5555e-01  2.0623e-01  8.3446e-05  1:01:36 1918

 turbulent viscosity limited to viscosity ratio of 1.000000e+05 in 104312 cells 

 Reversed flow on 1372 faces of pressure-inlet 6.

 turbulent viscosity limited to viscosity ratio of 1.000000e+05 in 105196 cells 
    83  4.0996e+01  3.1363e-02  2.6151e-02  3.5081e-02  3.2151e-01  2.5949e-01  8.5316e-05  1:02:02 1917

 turbulent viscosity limited to viscosity ratio of 1.000000e+05 in 105196 cells 

 Reversed flow on 1372 faces of pressure-inlet 6.

 turbulent viscosity limited to viscosity ratio of 1.000000e+05 in 106156 cells 
    84  3.9298e+01  2.8080e-02  2.5953e-02  3.7000e-02  5.8038e-01  1.9852e-01  8.7359e-05  0:55:59 1916

 turbulent viscosity limited to viscosity ratio of 1.000000e+05 in 106156 cells 

 Reversed flow on 1372 faces of pressure-inlet 6.

 turbulent viscosity limited to viscosity ratio of 1.000000e+05 in 107127 cells 
    85  3.7789e+01  2.4566e-02  2.1069e-02  2.7487e-02  3.0697e-01  1.9001e-01  8.8833e-05  0:57:32 1915

 turbulent viscosity limited to viscosity ratio of 1.000000e+05 in 107127 cells 

 Reversed flow on 1372 faces of pressure-inlet 6.

 turbulent viscosity limited to viscosity ratio of 1.000000e+05 in 108072 cells 
    86  3.4791e+01  2.0605e-02  1.8935e-02  2.2598e-02  2.4798e-01  1.3896e-01  9.0909e-05  0:58:46 1914

 turbulent viscosity limited to viscosity ratio of 1.000000e+05 in 108072 cells 

 Reversed flow on 1372 faces of pressure-inlet 6.

 turbulent viscosity limited to viscosity ratio of 1.000000e+05 in 109068 cells 
    87  3.3789e+01  1.9303e-02  1.6918e-02  2.0248e-02  2.7842e-01  1.1816e-01  9.2914e-05  0:53:22 1913

 turbulent viscosity limited to viscosity ratio of 1.000000e+05 in 109068 cells 

 Reversed flow on 1372 faces of pressure-inlet 6.

 turbulent viscosity limited to viscosity ratio of 1.000000e+05 in 110047 cells 
    88  3.2442e+01  1.8008e-02  1.6493e-02  1.9073e-02  2.5512e-01  1.5572e-01  9.5195e-05  0:55:25 1912

 turbulent viscosity limited to viscosity ratio of 1.000000e+05 in 110047 cells 

 Reversed flow on 1372 faces of pressure-inlet 6.

 turbulent viscosity limited to viscosity ratio of 1.000000e+05 in 111169 cells 

  iter  continuity  x-velocity  y-velocity  z-velocity           k       omega  vf-phase-2     time/iter
    89  3.2150e+01  1.7442e-02  1.5660e-02  1.6947e-02  1.7505e+00  1.4586e-01  9.8230e-05  0:57:03 1911

 turbulent viscosity limited to viscosity ratio of 1.000000e+05 in 111169 cells 

 Reversed flow on 1372 faces of pressure-inlet 6.

 turbulent viscosity limited to viscosity ratio of 1.000000e+05 in 112336 cells 
    90  3.1543e+01  1.7705e-02  2.0598e-02  2.0504e-02  1.0199e+00  2.5425e-01  1.0237e-04  0:58:21 1910

 turbulent viscosity limited to viscosity ratio of 1.000000e+05 in 112336 cells 

 Reversed flow on 1372 faces of pressure-inlet 6.

 turbulent viscosity limited to viscosity ratio of 1.000000e+05 in 113581 cells 
    91  3.1252e+01  1.7712e-02  2.1714e-02  2.0793e-02  5.2462e-01  2.0754e-01  1.0232e-04  0:59:23 1909

 turbulent viscosity limited to viscosity ratio of 1.000000e+05 in 113581 cells 

 Reversed flow on 1372 faces of pressure-inlet 6.

 turbulent viscosity limited to viscosity ratio of 1.000000e+05 in 114829 cells 
    92  2.9363e+01  1.5075e-02  1.5520e-02  1.5918e-02  5.0244e-01  1.5192e-01  1.0405e-04  1:00:12 1908

 turbulent viscosity limited to viscosity ratio of 1.000000e+05 in 114829 cells 

 Reversed flow on 1372 faces of pressure-inlet 6.

 turbulent viscosity limited to viscosity ratio of 1.000000e+05 in 116081 cells 
    93  2.7130e+01  1.4474e-02  1.4144e-02  1.4710e-02  5.3184e-01  1.3450e-01  1.0560e-04  0:54:29 1907

 turbulent viscosity limited to viscosity ratio of 1.000000e+05 in 116081 cells 

 Reversed flow on 1372 faces of pressure-inlet 6.

 turbulent viscosity limited to viscosity ratio of 1.000000e+05 in 117447 cells 
    94  2.6053e+01  1.3402e-02  1.2900e-02  1.3038e-02  4.9340e-01  1.1728e-01  1.0741e-04  0:56:17 1906

 turbulent viscosity limited to viscosity ratio of 1.000000e+05 in 117447 cells 

 Reversed flow on 1372 faces of pressure-inlet 6.

 turbulent viscosity limited to viscosity ratio of 1.000000e+05 in 118863 cells 
    95  2.5704e+01  1.2696e-02  1.1946e-02  1.1986e-02  6.1320e-01  1.1383e-01  1.0939e-04  0:57:42 1905

 turbulent viscosity limited to viscosity ratio of 1.000000e+05 in 118863 cells 

 Reversed flow on 1372 faces of pressure-inlet 6.

 turbulent viscosity limited to viscosity ratio of 1.000000e+05 in 120324 cells 
    96  2.5598e+01  1.2091e-02  1.1182e-02  1.1200e-02  5.3973e-01  9.7362e-02  1.1137e-04  0:58:50 1904

 turbulent viscosity limited to viscosity ratio of 1.000000e+05 in 120324 cells 

 Reversed flow on 1372 faces of pressure-inlet 6.

 turbulent viscosity limited to viscosity ratio of 1.000000e+05 in 121833 cells 
    97  2.6097e+01  1.1399e-02  1.0944e-02  1.0755e-02  6.4976e-01  1.0265e-01  1.1342e-04  0:59:43 1903

 turbulent viscosity limited to viscosity ratio of 1.000000e+05 in 121833 cells 

 Reversed flow on 1372 faces of pressure-inlet 6.

 turbulent viscosity limited to viscosity ratio of 1.000000e+05 in 123336 cells 
    98  2.7171e+01  1.0901e-02  1.0638e-02  1.0545e-02  4.4280e-01  1.2474e-01  1.1472e-04  1:00:26 1902

 turbulent viscosity limited to viscosity ratio of 1.000000e+05 in 123336 cells 

 Reversed flow on 1372 faces of pressure-inlet 6.

 turbulent viscosity limited to viscosity ratio of 1.000000e+05 in 124826 cells 
    99  2.8730e+01  1.0502e-02  1.0328e-02  1.0192e-02  8.9654e-01  1.2988e-01  1.1617e-04  1:01:00 1901

 turbulent viscosity limited to viscosity ratio of 1.000000e+05 in 124826 cells 

 Reversed flow on 1372 faces of pressure-inlet 6.

 turbulent viscosity limited to viscosity ratio of 1.000000e+05 in 126210 cells 

  iter  continuity  x-velocity  y-velocity  z-velocity           k       omega  vf-phase-2     time/iter
   100  2.9152e+01  1.0096e-02  9.5746e-03  1.0114e-02  8.4064e-01  1.3804e-01  1.1816e-04  1:01:26 1900

 turbulent viscosity limited to viscosity ratio of 1.000000e+05 in 126210 cells 

 Reversed flow on 1372 faces of pressure-inlet 6.

 turbulent viscosity limited to viscosity ratio of 1.000000e+05 in 127449 cells 
   101  3.0561e+01  1.0099e-02  9.3076e-03  1.0857e-02  4.3219e-01  1.2799e-01  1.1916e-04  0:55:27 1899

 turbulent viscosity limited to viscosity ratio of 1.000000e+05 in 127449 cells 

 Reversed flow on 1372 faces of pressure-inlet 6.

 turbulent viscosity limited to viscosity ratio of 1.000000e+05 in 128602 cells 
   102  3.2381e+01  9.7965e-03  9.3343e-03  1.0432e-02  3.5596e-01  1.3820e-01  1.2013e-04  1:03:19 1898

 turbulent viscosity limited to viscosity ratio of 1.000000e+05 in 128602 cells 

 Reversed flow on 1372 faces of pressure-inlet 6.

 turbulent viscosity limited to viscosity ratio of 1.000000e+05 in 129558 cells 
   103  3.6089e+01  9.8072e-03  9.3184e-03  9.6265e-03  3.5056e-01  1.0560e-01  1.2153e-04  0:56:57 1897

 turbulent viscosity limited to viscosity ratio of 1.000000e+05 in 129558 cells 

 Reversed flow on 1372 faces of pressure-inlet 6.

 turbulent viscosity limited to viscosity ratio of 1.000000e+05 in 130281 cells 
   104  3.8312e+01  9.7981e-03  9.3415e-03  9.3308e-03  5.5313e-01  1.1444e-01  1.2294e-04  1:04:30 1896

 turbulent viscosity limited to viscosity ratio of 1.000000e+05 in 130281 cells 

 Reversed flow on 1372 faces of pressure-inlet 6.

 turbulent viscosity limited to viscosity ratio of 1.000000e+05 in 131080 cells 
   105  4.3447e+01  9.8299e-03  9.5353e-03  9.3624e-03  2.7452e-01  8.9542e-02  1.2292e-04  1:04:12 1895

 turbulent viscosity limited to viscosity ratio of 1.000000e+05 in 131080 cells 

 Reversed flow on 1372 faces of pressure-inlet 6.

 turbulent viscosity limited to viscosity ratio of 1.000000e+05 in 131827 cells 
   106  4.5009e+01  9.4139e-03  9.3772e-03  8.7637e-03  3.0606e-01  8.6391e-02  1.2205e-04  1:03:58 1894

 turbulent viscosity limited to viscosity ratio of 1.000000e+05 in 131827 cells 

 Reversed flow on 1372 faces of pressure-inlet 6.

 turbulent viscosity limited to viscosity ratio of 1.000000e+05 in 132951 cells 
   107  4.1014e+01  8.8377e-03  8.8229e-03  8.4391e-03  1.9376e-01  8.5202e-02  1.1539e-04  1:03:46 1893

 turbulent viscosity limited to viscosity ratio of 1.000000e+05 in 132951 cells 

 Reversed flow on 1372 faces of pressure-inlet 6.
        Stabilizing pressure coupled to enhance linear solver robustness.

 turbulent viscosity limited to viscosity ratio of 1.000000e+05 in 124621 cells 
   108  4.6520e+01  8.3484e-03  8.3679e-03  8.2633e-03  2.2305e-01  1.2413e-01  2.8257e-04  1:41:26 1892

 turbulent viscosity limited to viscosity ratio of 1.000000e+05 in 124621 cells 

 Reversed flow on 1372 faces of pressure-inlet 6.

 turbulent viscosity limited to viscosity ratio of 1.000000e+05 in 131923 cells 
   109  4.2235e+02  4.5347e-02  4.3120e-02  4.0096e-02  2.0968e-01  2.2118e-01  1.3315e-04  1:40:01 1891

 turbulent viscosity limited to viscosity ratio of 1.000000e+05 in 131923 cells 

 Reversed flow on 1372 faces of pressure-inlet 6.

 turbulent viscosity limited to viscosity ratio of 1.000000e+05 in 135925 cells 
   110  2.3615e+02  1.4191e-02  1.2974e-02  1.2696e-02  1.9087e-01  1.4840e-01  1.1054e-04  1:38:52 1890

 turbulent viscosity limited to viscosity ratio of 1.000000e+05 in 135925 cells 

 Reversed flow on 1372 faces of pressure-inlet 6.

 turbulent viscosity limited to viscosity ratio of 1.000000e+05 in 136318 cells 

  iter  continuity  x-velocity  y-velocity  z-velocity           k       omega  vf-phase-2     time/iter
   111  2.2099e+02  2.2257e-02  2.0540e-02  2.0395e-02  1.6632e-01  1.1820e-01  1.0799e-04  1:31:39 1889

 turbulent viscosity limited to viscosity ratio of 1.000000e+05 in 136318 cells 

 Reversed flow on 1372 faces of pressure-inlet 6.

 turbulent viscosity limited to viscosity ratio of 1.000000e+05 in 135402 cells 
   112  1.8046e+02  2.3112e-02  2.0905e-02  2.1331e-02  4.4633e-01  1.1008e-01  1.2513e-04  1:32:10 1888

 turbulent viscosity limited to viscosity ratio of 1.000000e+05 in 135402 cells 

 Reversed flow on 1372 faces of pressure-inlet 6.

 turbulent viscosity limited to viscosity ratio of 1.000000e+05 in 134485 cells 
   113  1.3528e+02  1.5477e-02  1.5305e-02  1.5113e-02  5.6422e-01  1.6695e-01  1.4805e-04  1:32:34 1887

 turbulent viscosity limited to viscosity ratio of 1.000000e+05 in 134485 cells 

 Reversed flow on 1372 faces of pressure-inlet 6.

 turbulent viscosity limited to viscosity ratio of 1.000000e+05 in 135167 cells 
   114  1.9091e+02  1.8706e-02  1.6938e-02  1.5697e-02  4.2045e-01  1.0980e-01  1.6173e-04  1:26:35 1886

 turbulent viscosity limited to viscosity ratio of 1.000000e+05 in 135167 cells 

 Reversed flow on 1372 faces of pressure-inlet 6.

 turbulent viscosity limited to viscosity ratio of 1.000000e+05 in 135694 cells 
   115  1.6621e+02  1.9058e-02  1.7341e-02  1.6129e-02  2.6776e-01  1.1038e-01  1.8954e-04  1:28:05 1885

 turbulent viscosity limited to viscosity ratio of 1.000000e+05 in 135694 cells 

 Reversed flow on 1372 faces of pressure-inlet 6.

 turbulent viscosity limited to viscosity ratio of 1.000000e+05 in 137172 cells 
   116  1.8989e+02  2.2574e-02  2.0766e-02  1.9526e-02  2.1759e-01  1.1639e-01  2.0481e-04  1:22:59 1884

 turbulent viscosity limited to viscosity ratio of 1.000000e+05 in 137172 cells 

 Reversed flow on 1372 faces of pressure-inlet 6.

 turbulent viscosity limited to viscosity ratio of 1.000000e+05 in 138896 cells 
   117  1.6392e+02  2.1768e-02  2.0087e-02  1.9111e-02  2.2272e-01  1.1237e-01  2.2152e-04  1:18:54 1883

 turbulent viscosity limited to viscosity ratio of 1.000000e+05 in 138896 cells 

 Reversed flow on 1372 faces of pressure-inlet 6.

 turbulent viscosity limited to viscosity ratio of 1.000000e+05 in 140853 cells 
   118  1.5270e+02  2.1070e-02  1.9765e-02  1.8778e-02  1.7581e-01  1.0350e-01  2.3807e-04  1:15:38 1882

 turbulent viscosity limited to viscosity ratio of 1.000000e+05 in 140853 cells 

 Reversed flow on 1372 faces of pressure-inlet 6.

 turbulent viscosity limited to viscosity ratio of 1.000000e+05 in 143029 cells 
   119  1.5440e+02  2.0387e-02  1.9243e-02  1.8293e-02  1.4846e-01  9.1357e-02  2.5228e-04  1:13:01 1881

 turbulent viscosity limited to viscosity ratio of 1.000000e+05 in 143029 cells 

 Reversed flow on 1372 faces of pressure-inlet 6.

 turbulent viscosity limited to viscosity ratio of 1.000000e+05 in 145718 cells 
   120  1.5002e+02  1.9354e-02  1.8350e-02  1.7504e-02  1.3339e-01  8.1805e-02  2.6205e-04  1:10:55 1880

 turbulent viscosity limited to viscosity ratio of 1.000000e+05 in 145718 cells 

 Reversed flow on 1372 faces of pressure-inlet 6.

 turbulent viscosity limited to viscosity ratio of 1.000000e+05 in 149276 cells 
   121  1.3952e+02  1.7847e-02  1.6857e-02  1.6142e-02  1.2427e-01  7.9944e-02  2.4989e-04  1:21:45 1879

 turbulent viscosity limited to viscosity ratio of 1.000000e+05 in 149276 cells 

 Reversed flow on 1372 faces of pressure-inlet 6.

 turbulent viscosity limited to viscosity ratio of 1.000000e+05 in 151806 cells 

  iter  continuity  x-velocity  y-velocity  z-velocity           k       omega  vf-phase-2     time/iter
   122  1.9437e+02  1.4185e-02  1.2957e-02  1.2738e-02  1.1497e-01  7.9038e-02  2.6624e-04  1:17:53 1878

 turbulent viscosity limited to viscosity ratio of 1.000000e+05 in 151806 cells 

 Reversed flow on 1372 faces of pressure-inlet 6.

 turbulent viscosity limited to viscosity ratio of 1.000000e+05 in 153702 cells 
   123  1.4064e+02  1.4515e-02  1.3412e-02  1.2922e-02  1.0877e-01  7.6528e-02  2.8968e-04  1:14:48 1877

 turbulent viscosity limited to viscosity ratio of 1.000000e+05 in 153702 cells 

 Reversed flow on 1372 faces of pressure-inlet 6.

 turbulent viscosity limited to viscosity ratio of 1.000000e+05 in 156380 cells 
   124  1.2789e+02  1.6303e-02  1.4958e-02  1.4478e-02  1.0578e-01  8.0766e-02  3.0142e-04  1:12:19 1876

 turbulent viscosity limited to viscosity ratio of 1.000000e+05 in 156380 cells 

 Reversed flow on 1372 faces of pressure-inlet 6.

 turbulent viscosity limited to viscosity ratio of 1.000000e+05 in 159198 cells 
   125  1.3379e+02  1.5768e-02  1.4542e-02  1.4131e-02  1.0400e-01  8.6285e-02  3.1036e-04  1:16:34 1875

 turbulent viscosity limited to viscosity ratio of 1.000000e+05 in 159198 cells 

 Reversed flow on 1372 faces of pressure-inlet 6.

 turbulent viscosity limited to viscosity ratio of 1.000000e+05 in 161759 cells 
   126  1.6436e+02  1.5132e-02  1.4207e-02  1.3988e-02  1.0267e-01  8.4604e-02  3.1216e-04  1:19:58 1874

 turbulent viscosity limited to viscosity ratio of 1.000000e+05 in 161759 cells 

 Reversed flow on 1372 faces of pressure-inlet 6.

 turbulent viscosity limited to viscosity ratio of 1.000000e+05 in 164080 cells 
   127  2.3194e+02  1.4199e-02  1.3231e-02  1.3475e-02  1.0127e-01  7.3062e-02  3.1716e-04  1:16:25 1873

 turbulent viscosity limited to viscosity ratio of 1.000000e+05 in 164080 cells 

 Reversed flow on 1372 faces of pressure-inlet 6.

 turbulent viscosity limited to viscosity ratio of 1.000000e+05 in 166336 cells 
   128  2.2139e+02  1.3537e-02  1.2610e-02  1.2871e-02  1.0359e-01  8.9030e-02  3.2017e-04  1:07:21 1872

 turbulent viscosity limited to viscosity ratio of 1.000000e+05 in 166336 cells 

 Reversed flow on 1372 faces of pressure-inlet 6.

 turbulent viscosity limited to viscosity ratio of 1.000000e+05 in 168518 cells 
   129  2.0267e+02  1.2771e-02  1.1902e-02  1.2120e-02  1.0020e-01  8.9065e-02  3.2107e-04  1:06:19 1871

 turbulent viscosity limited to viscosity ratio of 1.000000e+05 in 168518 cells 

 Reversed flow on 1372 faces of pressure-inlet 6.

 turbulent viscosity limited to viscosity ratio of 1.000000e+05 in 170825 cells 
   130  2.0971e+02  1.1902e-02  1.1079e-02  1.1271e-02  1.8284e-01  8.2247e-02  3.1526e-04  1:05:30 1870

 turbulent viscosity limited to viscosity ratio of 1.000000e+05 in 170825 cells 

 Reversed flow on 1372 faces of pressure-inlet 6.

 turbulent viscosity limited to viscosity ratio of 1.000000e+05 in 173199 cells 
   131  2.0571e+02  1.0447e-02  9.6796e-03  9.9188e-03  2.5574e-01  8.4223e-02  3.0406e-04  1:04:50 1869

 turbulent viscosity limited to viscosity ratio of 1.000000e+05 in 173199 cells 

 Reversed flow on 1372 faces of pressure-inlet 6.

 turbulent viscosity limited to viscosity ratio of 1.000000e+05 in 175646 cells 
   132  1.9914e+02  8.8219e-03  8.3017e-03  8.5677e-03  2.6890e-01  8.2267e-02  2.9134e-04  1:10:31 1868

 turbulent viscosity limited to viscosity ratio of 1.000000e+05 in 175646 cells 

 Reversed flow on 1372 faces of pressure-inlet 6.

 turbulent viscosity limited to viscosity ratio of 1.000000e+05 in 177799 cells 

  iter  continuity  x-velocity  y-velocity  z-velocity           k       omega  vf-phase-2     time/iter
   133  1.8552e+02  7.6004e-03  7.2001e-03  7.5930e-03  2.2048e-01  7.7550e-02  2.8312e-04  1:08:50 1867

 turbulent viscosity limited to viscosity ratio of 1.000000e+05 in 177799 cells 

 Reversed flow on 1372 faces of pressure-inlet 6.

 turbulent viscosity limited to viscosity ratio of 1.000000e+05 in 179612 cells 
   134  1.7598e+02  7.3518e-03  6.9778e-03  7.3370e-03  1.5257e-01  7.6707e-02  2.7869e-04  1:13:42 1866

 turbulent viscosity limited to viscosity ratio of 1.000000e+05 in 179612 cells 

 Reversed flow on 1372 faces of pressure-inlet 6.

 turbulent viscosity limited to viscosity ratio of 1.000000e+05 in 181085 cells 
   135  1.8157e+02  7.5258e-03  7.2234e-03  7.5551e-03  1.2886e-01  7.6634e-02  2.7686e-04  1:11:21 1865

 turbulent viscosity limited to viscosity ratio of 1.000000e+05 in 181085 cells 

 Reversed flow on 1372 faces of pressure-inlet 6.

 turbulent viscosity limited to viscosity ratio of 1.000000e+05 in 182531 cells 
   136  1.8380e+02  7.6391e-03  7.2704e-03  7.6081e-03  1.0516e-01  7.6242e-02  2.8051e-04  1:15:42 1864

 turbulent viscosity limited to viscosity ratio of 1.000000e+05 in 182531 cells 

 Reversed flow on 1372 faces of pressure-inlet 6.

 turbulent viscosity limited to viscosity ratio of 1.000000e+05 in 184028 cells 
   137  2.0268e+02  7.6394e-03  7.1848e-03  7.5319e-03  9.9684e-02  7.1645e-02  2.7946e-04  1:06:44 1863

 turbulent viscosity limited to viscosity ratio of 1.000000e+05 in 184028 cells 

 Reversed flow on 1372 faces of pressure-inlet 6.

 turbulent viscosity limited to viscosity ratio of 1.000000e+05 in 185428 cells 
   138  1.8732e+02  7.4540e-03  6.8884e-03  7.2017e-03  1.0837e-01  6.3948e-02  2.7888e-04  1:05:46 1862

 turbulent viscosity limited to viscosity ratio of 1.000000e+05 in 185428 cells 

 Reversed flow on 1372 faces of pressure-inlet 6.

 turbulent viscosity limited to viscosity ratio of 1.000000e+05 in 186904 cells 
   139  1.6867e+02  7.1535e-03  6.5316e-03  6.7874e-03  1.3225e-01  5.8362e-02  2.7684e-04  1:05:00 1861

 turbulent viscosity limited to viscosity ratio of 1.000000e+05 in 186904 cells 

 Reversed flow on 1372 faces of pressure-inlet 6.

 turbulent viscosity limited to viscosity ratio of 1.000000e+05 in 188382 cells 
   140  1.6762e+02  6.8128e-03  6.1856e-03  6.3296e-03  1.3512e-01  6.3694e-02  2.7153e-04  1:04:22 1860

 turbulent viscosity limited to viscosity ratio of 1.000000e+05 in 188382 cells 

 Reversed flow on 1372 faces of pressure-inlet 6.

 turbulent viscosity limited to viscosity ratio of 1.000000e+05 in 189918 cells 
   141  1.5630e+02  6.4912e-03  5.9117e-03  5.8841e-03  1.1546e-01  6.3778e-02  2.6559e-04  1:03:52 1859

 turbulent viscosity limited to viscosity ratio of 1.000000e+05 in 189918 cells 

 Reversed flow on 1372 faces of pressure-inlet 6.

 turbulent viscosity limited to viscosity ratio of 1.000000e+05 in 191436 cells 
   142  1.4515e+02  6.1870e-03  5.6981e-03  5.5694e-03  1.1417e-01  6.1328e-02  2.6104e-04  1:03:27 1858

 turbulent viscosity limited to viscosity ratio of 1.000000e+05 in 191436 cells 

 Reversed flow on 1372 faces of pressure-inlet 6.

 turbulent viscosity limited to viscosity ratio of 1.000000e+05 in 192974 cells 
   143  1.4731e+02  5.9267e-03  5.5013e-03  5.4272e-03  1.0667e-01  5.8234e-02  2.6117e-04  1:03:07 1857

 turbulent viscosity limited to viscosity ratio of 1.000000e+05 in 192974 cells 

 Reversed flow on 1372 faces of pressure-inlet 6.

 turbulent viscosity limited to viscosity ratio of 1.000000e+05 in 194710 cells 

  iter  continuity  x-velocity  y-velocity  z-velocity           k       omega  vf-phase-2     time/iter
   144  1.3943e+02  5.7588e-03  5.4170e-03  5.2713e-03  1.0505e-01  5.5798e-02  2.8569e-04  1:15:12 1856

 turbulent viscosity limited to viscosity ratio of 1.000000e+05 in 194710 cells 

 Reversed flow on 1372 faces of pressure-inlet 6.

 turbulent viscosity limited to viscosity ratio of 1.000000e+05 in 196433 cells 
   145  1.6443e+02  8.4041e-03  7.7599e-03  6.7714e-03  1.0265e-01  5.3917e-02  3.0337e-04  1:12:30 1855

 turbulent viscosity limited to viscosity ratio of 1.000000e+05 in 196433 cells 

 Reversed flow on 1372 faces of pressure-inlet 6.

 turbulent viscosity limited to viscosity ratio of 1.000000e+05 in 198140 cells 
   146  1.5838e+02  1.0085e-02  9.3057e-03  7.9511e-03  9.1197e-02  5.1370e-02  3.2307e-04  1:10:20 1854

 turbulent viscosity limited to viscosity ratio of 1.000000e+05 in 198140 cells 

 Reversed flow on 1372 faces of pressure-inlet 6.

 turbulent viscosity limited to viscosity ratio of 1.000000e+05 in 199841 cells 
   147  1.5889e+02  1.1651e-02  1.0766e-02  9.2670e-03  9.2109e-02  4.8472e-02  3.3765e-04  1:08:35 1853

 turbulent viscosity limited to viscosity ratio of 1.000000e+05 in 199841 cells 

 Reversed flow on 1372 faces of pressure-inlet 6.

 turbulent viscosity limited to viscosity ratio of 1.000000e+05 in 201462 cells 
   148  1.4879e+02  1.2085e-02  1.1240e-02  9.7722e-03  8.9344e-02  4.7886e-02  3.4810e-04  1:13:22 1852

 turbulent viscosity limited to viscosity ratio of 1.000000e+05 in 201462 cells 

 Reversed flow on 1372 faces of pressure-inlet 6.

 turbulent viscosity limited to viscosity ratio of 1.000000e+05 in 203181 cells 
   149  1.4221e+02  1.1876e-02  1.1282e-02  9.9240e-03  8.6146e-02  4.7347e-02  3.5475e-04  1:11:00 1851

 turbulent viscosity limited to viscosity ratio of 1.000000e+05 in 203181 cells 

 Reversed flow on 1372 faces of pressure-inlet 6.

 turbulent viscosity limited to viscosity ratio of 1.000000e+05 in 204863 cells 
   150  1.5199e+02  1.1197e-02  1.0962e-02  9.8166e-03  7.8830e-02  4.6163e-02  3.5874e-04  1:09:06 1850

 turbulent viscosity limited to viscosity ratio of 1.000000e+05 in 204863 cells 

 Reversed flow on 1372 faces of pressure-inlet 6.

 turbulent viscosity limited to viscosity ratio of 1.000000e+05 in 206781 cells 
   151  1.6185e+02  1.0329e-02  1.0308e-02  9.4036e-03  7.5821e-02  4.5317e-02  3.5625e-04  1:13:44 1849

 turbulent viscosity limited to viscosity ratio of 1.000000e+05 in 206781 cells 

 Reversed flow on 1372 faces of pressure-inlet 6.

 turbulent viscosity limited to viscosity ratio of 1.000000e+05 in 208818 cells 
   152  1.7907e+02  9.3202e-03  9.4155e-03  8.7922e-03  7.1620e-02  4.4352e-02  3.4512e-04  1:17:26 1848

 turbulent viscosity limited to viscosity ratio of 1.000000e+05 in 208818 cells 

 Reversed flow on 1372 faces of pressure-inlet 6.

 turbulent viscosity limited to viscosity ratio of 1.000000e+05 in 210372 cells 
   153  2.1145e+02  8.3009e-03  8.1988e-03  7.9053e-03  6.9847e-02  4.2691e-02  3.4196e-04  1:14:14 1847

 turbulent viscosity limited to viscosity ratio of 1.000000e+05 in 210372 cells 

 Reversed flow on 1372 faces of pressure-inlet 6.

 turbulent viscosity limited to viscosity ratio of 1.000000e+05 in 211897 cells 
   154  1.9217e+02  7.9668e-03  7.7405e-03  7.5705e-03  6.9416e-02  4.4859e-02  3.3024e-04  1:11:40 1846

 turbulent viscosity limited to viscosity ratio of 1.000000e+05 in 211897 cells 

 Reversed flow on 1372 faces of pressure-inlet 6.

 turbulent viscosity limited to viscosity ratio of 1.000000e+05 in 213287 cells 

  iter  continuity  x-velocity  y-velocity  z-velocity           k       omega  vf-phase-2     time/iter
   155  2.0072e+02  7.7700e-03  7.2683e-03  7.4098e-03  7.0329e-02  4.8724e-02  3.2440e-04  1:09:36 1845

 turbulent viscosity limited to viscosity ratio of 1.000000e+05 in 213287 cells 

 Reversed flow on 1372 faces of pressure-inlet 6.

 turbulent viscosity limited to viscosity ratio of 1.000000e+05 in 214521 cells 
   156  1.9208e+02  7.6887e-03  7.0946e-03  7.3234e-03  6.7062e-02  5.5525e-02  3.1911e-04  1:07:56 1844

 turbulent viscosity limited to viscosity ratio of 1.000000e+05 in 214521 cells 

 Reversed flow on 1372 faces of pressure-inlet 6.

 turbulent viscosity limited to viscosity ratio of 1.000000e+05 in 215774 cells 
   157  1.7844e+02  7.6457e-03  6.9769e-03  7.2476e-03  6.4654e-02  5.8198e-02  3.1409e-04  1:06:37 1843

 turbulent viscosity limited to viscosity ratio of 1.000000e+05 in 215774 cells 

 Reversed flow on 1372 faces of pressure-inlet 6.

 turbulent viscosity limited to viscosity ratio of 1.000000e+05 in 216951 cells 
   158  1.5805e+02  7.5838e-03  6.8063e-03  7.1105e-03  6.2040e-02  5.8464e-02  3.1313e-04  1:05:32 1842

 turbulent viscosity limited to viscosity ratio of 1.000000e+05 in 216951 cells 

 Reversed flow on 1372 faces of pressure-inlet 6.

 turbulent viscosity limited to viscosity ratio of 1.000000e+05 in 218208 cells 
   159  1.4107e+02  7.3200e-03  6.6071e-03  6.7796e-03  6.0094e-02  5.7153e-02  3.1924e-04  1:10:49 1841

 turbulent viscosity limited to viscosity ratio of 1.000000e+05 in 218208 cells 

 Reversed flow on 1372 faces of pressure-inlet 6.

 turbulent viscosity limited to viscosity ratio of 1.000000e+05 in 219503 cells 
   160  1.5225e+02  7.0452e-03  6.6398e-03  6.3138e-03  5.8439e-02  5.5652e-02  3.2850e-04  1:15:01 1840

 turbulent viscosity limited to viscosity ratio of 1.000000e+05 in 219503 cells 

 Reversed flow on 1372 faces of pressure-inlet 6.

 turbulent viscosity limited to viscosity ratio of 1.000000e+05 in 220807 cells 
   161  1.6402e+02  7.3368e-03  7.0325e-03  6.1890e-03  5.7672e-02  5.3605e-02  3.3886e-04  1:18:22 1839

 turbulent viscosity limited to viscosity ratio of 1.000000e+05 in 220807 cells 

 Reversed flow on 1372 faces of pressure-inlet 6.

 turbulent viscosity limited to viscosity ratio of 1.000000e+05 in 222124 cells 
   162  1.6938e+02  7.8253e-03  7.5806e-03  6.3537e-03  5.7483e-02  5.1458e-02  3.4694e-04  1:08:47 1838

 turbulent viscosity limited to viscosity ratio of 1.000000e+05 in 222124 cells 

 Reversed flow on 1372 faces of pressure-inlet 6.

 turbulent viscosity limited to viscosity ratio of 1.000000e+05 in 223471 cells 
   163  1.5912e+02  7.9690e-03  7.7100e-03  6.3946e-03  5.7257e-02  5.0111e-02  3.5500e-04  1:07:15 1837

 turbulent viscosity limited to viscosity ratio of 1.000000e+05 in 223471 cells 

 Reversed flow on 1372 faces of pressure-inlet 6.

 turbulent viscosity limited to viscosity ratio of 1.000000e+05 in 224755 cells 
   164  1.5393e+02  8.0949e-03  7.8063e-03  6.4120e-03  5.7182e-02  4.8087e-02  3.6105e-04  1:06:01 1836

 turbulent viscosity limited to viscosity ratio of 1.000000e+05 in 224755 cells 

 Reversed flow on 1372 faces of pressure-inlet 6.

 turbulent viscosity limited to viscosity ratio of 1.000000e+05 in 226161 cells 
   165  1.4702e+02  7.9826e-03  7.6222e-03  6.2655e-03  5.6560e-02  4.6248e-02  3.6736e-04  1:05:01 1835

 turbulent viscosity limited to viscosity ratio of 1.000000e+05 in 226161 cells 

 Reversed flow on 1372 faces of pressure-inlet 6.

 turbulent viscosity limited to viscosity ratio of 1.000000e+05 in 227598 cells 

  iter  continuity  x-velocity  y-velocity  z-velocity           k       omega  vf-phase-2     time/iter
   166  1.4835e+02  7.7924e-03  7.4118e-03  6.0217e-03  5.6303e-02  4.5428e-02  3.7240e-04  1:04:13 1834

 turbulent viscosity limited to viscosity ratio of 1.000000e+05 in 227598 cells 

 Reversed flow on 1372 faces of pressure-inlet 6.

 turbulent viscosity limited to viscosity ratio of 1.000000e+05 in 229087 cells 
   167  1.4376e+02  7.5041e-03  7.0782e-03  5.6832e-03  5.6428e-02  4.6239e-02  3.7572e-04  1:03:34 1833

 turbulent viscosity limited to viscosity ratio of 1.000000e+05 in 229087 cells 

 Reversed flow on 1372 faces of pressure-inlet 6.

 turbulent viscosity limited to viscosity ratio of 1.000000e+05 in 230648 cells 
   168  1.3551e+02  7.2684e-03  6.6966e-03  5.2754e-03  5.7014e-02  4.6604e-02  3.7694e-04  1:03:02 1832

 turbulent viscosity limited to viscosity ratio of 1.000000e+05 in 230648 cells 

 Reversed flow on 1372 faces of pressure-inlet 6.

 turbulent viscosity limited to viscosity ratio of 1.000000e+05 in 232230 cells 
   169  1.2797e+02  6.9806e-03  6.3676e-03  4.9927e-03  5.6853e-02  4.6622e-02  3.7485e-04  1:02:36 1831

 turbulent viscosity limited to viscosity ratio of 1.000000e+05 in 232230 cells 

 Reversed flow on 1372 faces of pressure-inlet 6.

 turbulent viscosity limited to viscosity ratio of 1.000000e+05 in 233886 cells 
   170  1.2721e+02  6.7516e-03  6.0726e-03  4.9244e-03  5.6395e-02  4.6136e-02  3.7092e-04  1:02:15 1830

 turbulent viscosity limited to viscosity ratio of 1.000000e+05 in 233886 cells 

 Reversed flow on 1372 faces of pressure-inlet 6.

 turbulent viscosity limited to viscosity ratio of 1.000000e+05 in 235480 cells 
   171  1.2930e+02  6.6422e-03  5.9946e-03  5.0691e-03  5.6179e-02  4.4989e-02  3.6450e-04  1:01:58 1829

 turbulent viscosity limited to viscosity ratio of 1.000000e+05 in 235480 cells 

 Reversed flow on 1372 faces of pressure-inlet 6.

 turbulent viscosity limited to viscosity ratio of 1.000000e+05 in 236977 cells 
   172  1.3387e+02  6.5403e-03  5.9412e-03  5.2954e-03  5.6193e-02  4.3598e-02  3.5729e-04  1:01:44 1828

 turbulent viscosity limited to viscosity ratio of 1.000000e+05 in 236977 cells 

 Reversed flow on 1372 faces of pressure-inlet 6.

 turbulent viscosity limited to viscosity ratio of 1.000000e+05 in 238391 cells 
   173  1.4004e+02  6.6168e-03  6.0345e-03  5.6107e-03  5.5517e-02  4.2345e-02  3.5006e-04  1:07:38 1827

 turbulent viscosity limited to viscosity ratio of 1.000000e+05 in 238391 cells 

 Reversed flow on 1372 faces of pressure-inlet 6.

 turbulent viscosity limited to viscosity ratio of 1.000000e+05 in 239590 cells 
   174  1.4455e+02  6.7417e-03  6.1943e-03  5.9470e-03  5.5424e-02  4.1307e-02  3.4309e-04  1:00:10 1826

 turbulent viscosity limited to viscosity ratio of 1.000000e+05 in 239590 cells 

 Reversed flow on 1372 faces of pressure-inlet 6.

 turbulent viscosity limited to viscosity ratio of 1.000000e+05 in 240690 cells 
   175  1.4436e+02  6.8209e-03  6.3022e-03  6.1892e-03  5.5189e-02  4.0509e-02  3.3809e-04  1:00:16 1825

 turbulent viscosity limited to viscosity ratio of 1.000000e+05 in 240690 cells 

 Reversed flow on 1372 faces of pressure-inlet 6.

 turbulent viscosity limited to viscosity ratio of 1.000000e+05 in 241781 cells 
   176  1.2917e+02  7.0116e-03  6.4934e-03  6.4447e-03  5.4775e-02  3.9608e-02  3.3443e-04  1:00:21 1824

 turbulent viscosity limited to viscosity ratio of 1.000000e+05 in 241781 cells 

 Reversed flow on 1372 faces of pressure-inlet 6.

 turbulent viscosity limited to viscosity ratio of 1.000000e+05 in 242812 cells 

  iter  continuity  x-velocity  y-velocity  z-velocity           k       omega  vf-phase-2     time/iter
   177  1.2820e+02  6.8317e-03  6.4366e-03  6.3690e-03  5.3901e-02  3.8123e-02  3.3230e-04  1:00:24 1823

 turbulent viscosity limited to viscosity ratio of 1.000000e+05 in 242812 cells 

 Reversed flow on 1372 faces of pressure-inlet 6.

 turbulent viscosity limited to viscosity ratio of 1.000000e+05 in 243885 cells 
   178  1.1458e+02  6.2161e-03  6.0060e-03  5.8465e-03  5.2999e-02  3.6579e-02  3.3149e-04  1:06:31 1822

 turbulent viscosity limited to viscosity ratio of 1.000000e+05 in 243885 cells 

 Reversed flow on 1372 faces of pressure-inlet 6.

 turbulent viscosity limited to viscosity ratio of 1.000000e+05 in 245067 cells 
   179  1.0931e+02  5.2289e-03  5.2209e-03  4.9346e-03  5.2410e-02  3.5194e-02  3.3173e-04  1:05:20 1821

 turbulent viscosity limited to viscosity ratio of 1.000000e+05 in 245067 cells 

 Reversed flow on 1372 faces of pressure-inlet 6.

 turbulent viscosity limited to viscosity ratio of 1.000000e+05 in 246187 cells 
   180  1.0452e+02  4.7304e-03  4.7932e-03  4.4079e-03  5.2181e-02  3.4674e-02  3.3193e-04  1:04:22 1820

 turbulent viscosity limited to viscosity ratio of 1.000000e+05 in 246187 cells 

 Reversed flow on 1372 faces of pressure-inlet 6.

 turbulent viscosity limited to viscosity ratio of 1.000000e+05 in 247305 cells 
   181  9.9551e+01  4.5504e-03  4.6798e-03  4.1728e-03  5.2085e-02  3.4243e-02  3.3251e-04  1:03:35 1819

 turbulent viscosity limited to viscosity ratio of 1.000000e+05 in 247305 cells 

 Reversed flow on 1372 faces of pressure-inlet 6.

 turbulent viscosity limited to viscosity ratio of 1.000000e+05 in 248471 cells 
   182  9.6341e+01  4.5333e-03  4.7245e-03  4.1059e-03  5.1807e-02  3.3794e-02  3.3361e-04  0:56:54 1818

 turbulent viscosity limited to viscosity ratio of 1.000000e+05 in 248471 cells 

 Reversed flow on 1372 faces of pressure-inlet 6.

 turbulent viscosity limited to viscosity ratio of 1.000000e+05 in 249731 cells 
   183  9.5153e+01  4.6325e-03  4.8606e-03  4.2301e-03  5.2200e-02  3.3693e-02  3.3502e-04  0:57:37 1817

 turbulent viscosity limited to viscosity ratio of 1.000000e+05 in 249731 cells 

 Reversed flow on 1372 faces of pressure-inlet 6.

 turbulent viscosity limited to viscosity ratio of 1.000000e+05 in 250922 cells 
   184  9.3564e+01  4.7418e-03  4.9744e-03  4.3864e-03  5.2616e-02  3.3630e-02  3.3514e-04  0:58:10 1816

 turbulent viscosity limited to viscosity ratio of 1.000000e+05 in 250922 cells 

 Reversed flow on 1372 faces of pressure-inlet 6.

 turbulent viscosity limited to viscosity ratio of 1.000000e+05 in 252073 cells 
   185  9.6813e+01  5.0023e-03  5.2394e-03  4.7083e-03  5.1052e-02  3.4183e-02  3.3296e-04  0:58:37 1815

 turbulent viscosity limited to viscosity ratio of 1.000000e+05 in 252073 cells 

 Reversed flow on 1372 faces of pressure-inlet 6.

 turbulent viscosity limited to viscosity ratio of 1.000000e+05 in 253205 cells 
   186  1.0433e+02  5.5175e-03  5.7258e-03  5.2193e-03  5.0398e-02  3.5112e-02  3.3020e-04  0:58:57 1814

 turbulent viscosity limited to viscosity ratio of 1.000000e+05 in 253205 cells 

 Reversed flow on 1372 faces of pressure-inlet 6.

 turbulent viscosity limited to viscosity ratio of 1.000000e+05 in 254143 cells 
   187  1.0539e+02  5.7601e-03  5.9363e-03  5.4321e-03  4.9715e-02  3.6272e-02  3.2457e-04  1:05:16 1813

 turbulent viscosity limited to viscosity ratio of 1.000000e+05 in 254143 cells 

 Reversed flow on 1372 faces of pressure-inlet 6.

 turbulent viscosity limited to viscosity ratio of 1.000000e+05 in 255125 cells 

  iter  continuity  x-velocity  y-velocity  z-velocity           k       omega  vf-phase-2     time/iter
   188  1.1941e+02  6.0526e-03  6.0882e-03  5.5719e-03  4.8679e-02  3.7062e-02  3.2135e-04  1:04:16 1812

 turbulent viscosity limited to viscosity ratio of 1.000000e+05 in 255125 cells 

 Reversed flow on 1372 faces of pressure-inlet 6.

 turbulent viscosity limited to viscosity ratio of 1.000000e+05 in 255951 cells 
   189  1.3218e+02  6.1667e-03  6.1243e-03  5.6024e-03  4.7241e-02  3.7493e-02  3.1822e-04  0:57:25 1811

 turbulent viscosity limited to viscosity ratio of 1.000000e+05 in 255951 cells 

 Reversed flow on 1372 faces of pressure-inlet 6.

 turbulent viscosity limited to viscosity ratio of 1.000000e+05 in 256749 cells 
   190  1.3498e+02  6.3103e-03  6.1684e-03  5.6679e-03  4.5969e-02  3.7337e-02  3.1525e-04  0:57:59 1810

 turbulent viscosity limited to viscosity ratio of 1.000000e+05 in 256749 cells 

 Reversed flow on 1372 faces of pressure-inlet 6.

 turbulent viscosity limited to viscosity ratio of 1.000000e+05 in 257496 cells 
   191  1.3186e+02  6.4563e-03  6.1900e-03  5.7251e-03  4.5206e-02  3.5040e-02  3.1268e-04  0:58:25 1809

 turbulent viscosity limited to viscosity ratio of 1.000000e+05 in 257496 cells 

 Reversed flow on 1372 faces of pressure-inlet 6.

 turbulent viscosity limited to viscosity ratio of 1.000000e+05 in 258241 cells 
   192  1.2417e+02  6.5479e-03  6.1320e-03  5.7252e-03  4.4997e-02  3.2949e-02  3.1115e-04  0:58:46 1808

 turbulent viscosity limited to viscosity ratio of 1.000000e+05 in 258241 cells 

 Reversed flow on 1372 faces of pressure-inlet 6.

 turbulent viscosity limited to viscosity ratio of 1.000000e+05 in 259025 cells 
   193  1.1316e+02  6.5285e-03  5.9998e-03  5.7217e-03  4.5714e-02  3.2964e-02  3.1166e-04  0:59:02 1807

 turbulent viscosity limited to viscosity ratio of 1.000000e+05 in 259025 cells 

 Reversed flow on 1372 faces of pressure-inlet 6.

 turbulent viscosity limited to viscosity ratio of 1.000000e+05 in 260123 cells 
   194  1.0484e+02  6.4910e-03  5.8775e-03  5.7367e-03  4.8036e-02  3.3913e-02  3.1739e-04  1:05:15 1806

 turbulent viscosity limited to viscosity ratio of 1.000000e+05 in 260123 cells 

 Reversed flow on 1372 faces of pressure-inlet 6.

 turbulent viscosity limited to viscosity ratio of 1.000000e+05 in 261196 cells 
   195  1.1573e+02  6.5200e-03  5.9313e-03  5.8483e-03  5.1085e-02  3.4722e-02  3.2762e-04  1:10:14 1805

 turbulent viscosity limited to viscosity ratio of 1.000000e+05 in 261196 cells 

 Reversed flow on 1372 faces of pressure-inlet 6.

 turbulent viscosity limited to viscosity ratio of 1.000000e+05 in 262301 cells 
   196  1.2949e+02  6.2793e-03  5.8662e-03  5.6556e-03  5.0789e-02  3.4638e-02  3.3918e-04  1:14:11 1804

 turbulent viscosity limited to viscosity ratio of 1.000000e+05 in 262301 cells 

 Reversed flow on 1372 faces of pressure-inlet 6.

 turbulent viscosity limited to viscosity ratio of 1.000000e+05 in 263232 cells 
   197  1.3573e+02  6.3687e-03  6.1379e-03  5.7570e-03  6.0323e-02  3.5539e-02  3.5097e-04  1:11:20 1803

 turbulent viscosity limited to viscosity ratio of 1.000000e+05 in 263232 cells 

 Reversed flow on 1372 faces of pressure-inlet 6.

 turbulent viscosity limited to viscosity ratio of 1.000000e+05 in 264070 cells 
   198  1.3624e+02  6.7231e-03  6.6081e-03  6.0423e-03  6.3433e-02  3.9255e-02  3.6844e-04  1:09:03 1802

 turbulent viscosity limited to viscosity ratio of 1.000000e+05 in 264070 cells 

 Reversed flow on 1372 faces of pressure-inlet 6.

 turbulent viscosity limited to viscosity ratio of 1.000000e+05 in 264955 cells 

  iter  continuity  x-velocity  y-velocity  z-velocity           k       omega  vf-phase-2     time/iter
   199  1.4997e+02  7.6010e-03  7.6176e-03  6.7883e-03  6.8935e-02  4.6044e-02  3.8156e-04  1:07:13 1801

 turbulent viscosity limited to viscosity ratio of 1.000000e+05 in 264955 cells 

 Reversed flow on 1372 faces of pressure-inlet 6.

 turbulent viscosity limited to viscosity ratio of 1.000000e+05 in 265736 cells 
   200  1.4459e+02  7.8992e-03  7.9642e-03  7.0590e-03  7.5660e-02  5.4596e-02  3.9546e-04  1:05:45 1800

 turbulent viscosity limited to viscosity ratio of 1.000000e+05 in 265736 cells 

 Reversed flow on 1372 faces of pressure-inlet 6.

 turbulent viscosity limited to viscosity ratio of 1.000000e+05 in 266450 cells 
   201  1.3953e+02  8.2041e-03  8.3032e-03  7.3592e-03  7.0466e-02  6.2363e-02  4.0808e-04  1:04:34 1799

 turbulent viscosity limited to viscosity ratio of 1.000000e+05 in 266450 cells 

 Reversed flow on 1372 faces of pressure-inlet 6.

 turbulent viscosity limited to viscosity ratio of 1.000000e+05 in 267182 cells 
   202  1.3400e+02  8.2582e-03  8.3667e-03  7.4454e-03  6.7402e-02  6.4081e-02  4.1968e-04  1:03:36 1798

 turbulent viscosity limited to viscosity ratio of 1.000000e+05 in 267182 cells 

 Reversed flow on 1372 faces of pressure-inlet 6.

 turbulent viscosity limited to viscosity ratio of 1.000000e+05 in 267978 cells 
   203  1.2951e+02  8.0655e-03  8.2002e-03  7.2979e-03  5.8979e-02  6.1681e-02  4.2914e-04  1:02:50 1797

 turbulent viscosity limited to viscosity ratio of 1.000000e+05 in 267978 cells 

 Reversed flow on 1372 faces of pressure-inlet 6.

 turbulent viscosity limited to viscosity ratio of 1.000000e+05 in 268803 cells 
   204  1.2421e+02  7.6721e-03  7.8379e-03  6.9436e-03  5.3156e-02  5.6967e-02  4.3781e-04  0:56:14 1796

 turbulent viscosity limited to viscosity ratio of 1.000000e+05 in 268803 cells 

 Reversed flow on 1372 faces of pressure-inlet 6.

 turbulent viscosity limited to viscosity ratio of 1.000000e+05 in 269796 cells 
   205  1.1935e+02  7.2902e-03  7.5108e-03  6.5824e-03  5.0519e-02  5.1283e-02  4.4602e-04  0:56:55 1795

 turbulent viscosity limited to viscosity ratio of 1.000000e+05 in 269796 cells 

 Reversed flow on 1372 faces of pressure-inlet 6.

 turbulent viscosity limited to viscosity ratio of 1.000000e+05 in 270882 cells 
   206  1.1714e+02  7.0023e-03  7.2821e-03  6.2863e-03  4.7852e-02  4.5030e-02  4.5303e-04  0:57:28 1794

 turbulent viscosity limited to viscosity ratio of 1.000000e+05 in 270882 cells 

 Reversed flow on 1372 faces of pressure-inlet 6.

 turbulent viscosity limited to viscosity ratio of 1.000000e+05 in 272061 cells 
   207  1.1416e+02  6.7664e-03  7.0659e-03  5.9853e-03  4.6047e-02  3.7752e-02  4.5960e-04  0:57:54 1793

 turbulent viscosity limited to viscosity ratio of 1.000000e+05 in 272061 cells 

 Reversed flow on 1372 faces of pressure-inlet 6.

 turbulent viscosity limited to viscosity ratio of 1.000000e+05 in 273275 cells 
   208  1.1469e+02  6.6163e-03  6.9292e-03  5.7852e-03  4.6225e-02  3.2519e-02  4.6732e-04  0:58:15 1792

 turbulent viscosity limited to viscosity ratio of 1.000000e+05 in 273275 cells 

 Reversed flow on 1372 faces of pressure-inlet 6.

 turbulent viscosity limited to viscosity ratio of 1.000000e+05 in 274562 cells 
   209  1.1966e+02  6.5778e-03  6.9520e-03  5.7958e-03  4.5591e-02  4.0605e-02  4.7702e-04  0:58:31 1791

 turbulent viscosity limited to viscosity ratio of 1.000000e+05 in 274562 cells 

 Reversed flow on 1372 faces of pressure-inlet 6.

 turbulent viscosity limited to viscosity ratio of 1.000000e+05 in 275903 cells 

  iter  continuity  x-velocity  y-velocity  z-velocity           k       omega  vf-phase-2     time/iter
   210  1.2245e+02  6.5959e-03  7.0674e-03  5.9302e-03  4.5115e-02  4.6411e-02  4.8801e-04  1:04:41 1790

 turbulent viscosity limited to viscosity ratio of 1.000000e+05 in 275903 cells 

 Reversed flow on 1372 faces of pressure-inlet 6.

 turbulent viscosity limited to viscosity ratio of 1.000000e+05 in 277181 cells 
   211  1.1988e+02  6.6799e-03  7.2087e-03  6.1146e-03  4.4679e-02  5.0868e-02  4.9598e-04  0:57:41 1789

 turbulent viscosity limited to viscosity ratio of 1.000000e+05 in 277181 cells 

 Reversed flow on 1372 faces of pressure-inlet 6.

 turbulent viscosity limited to viscosity ratio of 1.000000e+05 in 278523 cells 
   212  1.1712e+02  6.5655e-03  7.0956e-03  6.0291e-03  4.4311e-02  5.2712e-02  5.0219e-04  0:58:02 1788

 turbulent viscosity limited to viscosity ratio of 1.000000e+05 in 278523 cells 

 Reversed flow on 1372 faces of pressure-inlet 6.

 turbulent viscosity limited to viscosity ratio of 1.000000e+05 in 279799 cells 
   213  1.1753e+02  6.3881e-03  6.8899e-03  5.8403e-03  4.4142e-02  5.2608e-02  5.0594e-04  0:58:19 1787

 turbulent viscosity limited to viscosity ratio of 1.000000e+05 in 279799 cells 

 Reversed flow on 1372 faces of pressure-inlet 6.

 turbulent viscosity limited to viscosity ratio of 1.000000e+05 in 281179 cells 
   214  1.2140e+02  6.1219e-03  6.5874e-03  5.5797e-03  4.3802e-02  5.1445e-02  5.0684e-04  0:58:32 1786

 turbulent viscosity limited to viscosity ratio of 1.000000e+05 in 281179 cells 

 Reversed flow on 1372 faces of pressure-inlet 6.

 turbulent viscosity limited to viscosity ratio of 1.000000e+05 in 282464 cells 
   215  1.2917e+02  5.8828e-03  6.3017e-03  5.3213e-03  4.3490e-02  4.8672e-02  5.0911e-04  0:58:42 1785

 turbulent viscosity limited to viscosity ratio of 1.000000e+05 in 282464 cells 

 Reversed flow on 1372 faces of pressure-inlet 6.

 turbulent viscosity limited to viscosity ratio of 1.000000e+05 in 283762 cells 
   216  1.2483e+02  5.7444e-03  6.1125e-03  5.1706e-03  4.2128e-02  4.5653e-02  5.0938e-04  1:04:47 1784

 turbulent viscosity limited to viscosity ratio of 1.000000e+05 in 283762 cells 

 Reversed flow on 1372 faces of pressure-inlet 6.

 turbulent viscosity limited to viscosity ratio of 1.000000e+05 in 285022 cells 
   217  1.2952e+02  5.7436e-03  6.0125e-03  5.1793e-03  4.3621e-02  4.2036e-02  5.1109e-04  1:03:41 1783

 turbulent viscosity limited to viscosity ratio of 1.000000e+05 in 285022 cells 

 Reversed flow on 1372 faces of pressure-inlet 6.

 turbulent viscosity limited to viscosity ratio of 1.000000e+05 in 286254 cells 
   218  1.3008e+02  5.6937e-03  5.8843e-03  5.1578e-03  4.4968e-02  3.9419e-02  5.1327e-04  1:02:48 1782

 turbulent viscosity limited to viscosity ratio of 1.000000e+05 in 286254 cells 

 Reversed flow on 1372 faces of pressure-inlet 6.

 turbulent viscosity limited to viscosity ratio of 1.000000e+05 in 287718 cells 
   219  1.3140e+02  5.7029e-03  5.8459e-03  5.1686e-03  4.5848e-02  3.7212e-02  4.7329e-04  1:19:53 1781

 turbulent viscosity limited to viscosity ratio of 1.000000e+05 in 287718 cells 

 Reversed flow on 1372 faces of pressure-inlet 6.

 turbulent viscosity limited to viscosity ratio of 1.000000e+05 in 288440 cells 
   220  2.7050e+02  6.3082e-03  5.7878e-03  6.3120e-03  5.0808e-02  3.5461e-02  4.5069e-04  1:15:45 1780

 turbulent viscosity limited to viscosity ratio of 1.000000e+05 in 288440 cells 

 Reversed flow on 1372 faces of pressure-inlet 6.

 turbulent viscosity limited to viscosity ratio of 1.000000e+05 in 288876 cells 

  iter  continuity  x-velocity  y-velocity  z-velocity           k       omega  vf-phase-2     time/iter
   221  3.0705e+02  8.0716e-03  7.3039e-03  8.1900e-03  6.9830e-02  4.5469e-02  4.4559e-04  1:12:25 1779

 turbulent viscosity limited to viscosity ratio of 1.000000e+05 in 288876 cells 

 Reversed flow on 1372 faces of pressure-inlet 6.

 turbulent viscosity limited to viscosity ratio of 1.000000e+05 in 289664 cells 
   222  2.5418e+02  8.1167e-03  7.2938e-03  8.2612e-03  9.4886e-02  5.0264e-02  4.4896e-04  1:15:41 1778

 turbulent viscosity limited to viscosity ratio of 1.000000e+05 in 289664 cells 

 Reversed flow on 1372 faces of pressure-inlet 6.

 turbulent viscosity limited to viscosity ratio of 1.000000e+05 in 290847 cells 
   223  1.9870e+02  7.4593e-03  6.7765e-03  7.5727e-03  1.4640e-01  6.7602e-02  4.6547e-04  1:18:17 1777

[...]

 turbulent viscosity limited to viscosity ratio of 1.000000e+05 in 420502 cells 

 Reversed flow on 590 faces of pressure-outlet 7.
   959  5.3411e+01  1.2068e-03  1.1718e-03  1.1076e-03  6.8132e-03  4.9557e-03  6.6158e-04  0:32:16 1041

 turbulent viscosity limited to viscosity ratio of 1.000000e+05 in 420502 cells 

 Reversed flow on 1092 faces of pressure-inlet 6.

 turbulent viscosity limited to viscosity ratio of 1.000000e+05 in 420510 cells 

 Reversed flow on 592 faces of pressure-outlet 7.
   960  5.3104e+01  1.2012e-03  1.1665e-03  1.1009e-03  6.8003e-03  4.9061e-03  6.6092e-04  0:32:43 1040

 turbulent viscosity limited to viscosity ratio of 1.000000e+05 in 420510 cells 

 Reversed flow on 1092 faces of pressure-inlet 6.

 turbulent viscosity limited to viscosity ratio of 1.000000e+05 in 420514 cells 

 Reversed flow on 593 faces of pressure-outlet 7.
   961  5.2422e+01  1.1943e-03  1.1602e-03  1.0931e-03  6.7838e-03  4.8517e-03  6.6036e-04  0:29:37 1039

 turbulent viscosity limited to viscosity ratio of 1.000000e+05 in 420514 cells 

 Reversed flow on 1092 faces of pressure-inlet 6.

 turbulent viscosity limited to viscosity ratio of 1.000000e+05 in 420532 cells 

 Reversed flow on 597 faces of pressure-outlet 7.
   962  5.1946e+01  1.1886e-03  1.1558e-03  1.0868e-03  6.7775e-03  4.7804e-03  6.5981e-04  0:30:35 1038

 turbulent viscosity limited to viscosity ratio of 1.000000e+05 in 420532 cells 

 Reversed flow on 1092 faces of pressure-inlet 6.

 turbulent viscosity limited to viscosity ratio of 1.000000e+05 in 420549 cells 

 Reversed flow on 599 faces of pressure-outlet 7.
   963  5.1420e+01  1.1814e-03  1.1502e-03  1.0803e-03  6.7508e-03  4.6663e-03  6.5925e-04  0:31:22 1037

 turbulent viscosity limited to viscosity ratio of 1.000000e+05 in 420549 cells 

 Reversed flow on 1088 faces of pressure-inlet 6.

 turbulent viscosity limited to viscosity ratio of 1.000000e+05 in 420562 cells 

 Reversed flow on 601 faces of pressure-outlet 7.
   964  5.0999e+01  1.1747e-03  1.1442e-03  1.0756e-03  6.7284e-03  4.5768e-03  6.5868e-04  0:31:58 1036

 turbulent viscosity limited to viscosity ratio of 1.000000e+05 in 420562 cells 

 Reversed flow on 1087 faces of pressure-inlet 6.

 turbulent viscosity limited to viscosity ratio of 1.000000e+05 in 420585 cells 

 Reversed flow on 603 faces of pressure-outlet 7.
   965  5.0855e+01  1.1681e-03  1.1392e-03  1.0712e-03  6.7078e-03  4.5575e-03  6.5803e-04  0:32:27 1035

 turbulent viscosity limited to viscosity ratio of 1.000000e+05 in 420585 cells 

 Reversed flow on 1086 faces of pressure-inlet 6.

 turbulent viscosity limited to viscosity ratio of 1.000000e+05 in 420597 cells 

 Reversed flow on 605 faces of pressure-outlet 7.
   966  5.0862e+01  1.1624e-03  1.1363e-03  1.0681e-03  6.6907e-03  4.5911e-03  6.5738e-04  0:32:50 1034

 turbulent viscosity limited to viscosity ratio of 1.000000e+05 in 420597 cells 

 Reversed flow on 1086 faces of pressure-inlet 6.

 turbulent viscosity limited to viscosity ratio of 1.000000e+05 in 420606 cells 

 Reversed flow on 606 faces of pressure-outlet 7.
   967  5.0875e+01  1.1575e-03  1.1345e-03  1.0656e-03  6.6537e-03  4.4985e-03  6.5682e-04  0:33:07 1033

 turbulent viscosity limited to viscosity ratio of 1.000000e+05 in 420606 cells 

 Reversed flow on 1086 faces of pressure-inlet 6.

 turbulent viscosity limited to viscosity ratio of 1.000000e+05 in 420612 cells 

 Reversed flow on 607 faces of pressure-outlet 7.
   968  5.0748e+01  1.1542e-03  1.1340e-03  1.0639e-03  6.6227e-03  4.4641e-03  6.5625e-04  0:33:21 1032

 turbulent viscosity limited to viscosity ratio of 1.000000e+05 in 420612 cells 

 Reversed flow on 1086 faces of pressure-inlet 6.

 turbulent viscosity limited to viscosity ratio of 1.000000e+05 in 420623 cells 

 Reversed flow on 609 faces of pressure-outlet 7.

  iter  continuity  x-velocity  y-velocity  z-velocity           k       omega  vf-phase-2     time/iter
   969  5.0773e+01  1.1528e-03  1.1343e-03  1.0630e-03  6.6003e-03  4.4709e-03  6.5567e-04  0:33:32 1031

 turbulent viscosity limited to viscosity ratio of 1.000000e+05 in 420623 cells 

 Reversed flow on 1085 faces of pressure-inlet 6.

 turbulent viscosity limited to viscosity ratio of 1.000000e+05 in 420636 cells 

 Reversed flow on 613 faces of pressure-outlet 7.
   970  5.0816e+01  1.1519e-03  1.1346e-03  1.0623e-03  6.5900e-03  4.5102e-03  6.5507e-04  0:33:40 1030

 turbulent viscosity limited to viscosity ratio of 1.000000e+05 in 420636 cells 

 Reversed flow on 1085 faces of pressure-inlet 6.

 turbulent viscosity limited to viscosity ratio of 1.000000e+05 in 420658 cells 

 Reversed flow on 611 faces of pressure-outlet 7.
   971  5.0891e+01  1.1523e-03  1.1357e-03  1.0620e-03  6.5825e-03  4.5741e-03  6.5443e-04  0:33:46 1029

 turbulent viscosity limited to viscosity ratio of 1.000000e+05 in 420658 cells 

 Reversed flow on 1085 faces of pressure-inlet 6.

 turbulent viscosity limited to viscosity ratio of 1.000000e+05 in 420676 cells 

 Reversed flow on 613 faces of pressure-outlet 7.

Interrupting...
   972  5.1033e+01  1.1531e-03  1.1364e-03  1.0618e-03  6.5875e-03  4.7218e-03  6.5381e-04  0:33:50 1028
Done.
Registering ReportDefFiles, ("C:\Users\akten\Desktop\MST_UUV_2022\Barbaros USV\Barbaros_analiz\Analiz_files\dp0\FFF-3\Fluent\.\\report-def-0-rfile.out")
Writing "| gzip -2cf > SolutionMonitor.gz"...
Writing temporary file C:\\Users\\akten\\AppData\\Local\\Temp\\flntgz-201442 ...
Done.


Writing to Akten:"C:\Users\akten\Desktop\MST_UUV_2022\Barbaros USV\Barbaros_analiz\Analiz_files\dp0\FFF-3\Fluent\SYS.1-5.cas.h5" in NODE0 mode and compression level 1 ...
      442793 cells,     1 zone  ...
      957660 faces,     6 zones ...
      112903 nodes,     1 zone  ...
  Done.
Done.

Writing to Akten:"C:\Users\akten\Desktop\MST_UUV_2022\Barbaros USV\Barbaros_analiz\Analiz_files\dp0\FFF-3\Fluent\SYS.1-5-00972.dat.h5" in NODE0 mode and compression level 1 ...
  Writing results.
Done.

Performance Timer for 972 iterations on 4 compute nodes
  Average wall-clock time per iteration:                1.958 sec
  Global reductions per iteration:                        146 ops
  Global reductions time per iteration:                 0.000 sec (0.0%)
  Message count per iteration:                          10983 messages
  Data transfer per iteration:                         12.934 MB
  LE solves per iteration:                                  4 solves
  LE wall-clock time per iteration:                     1.121 sec (57.3%)
  LE global solves per iteration:                           7 solves
  LE global wall-clock time per iteration:              0.001 sec (0.0%)
  LE global matrix maximum size:                           90
  AMG cycles per iteration:                             7.498 cycles
  Relaxation sweeps per iteration:                       1798 sweeps
  Relaxation exchanges per iteration:                       0 exchanges
  LE early protections (stall) per iteration:           0.006 times
  LE early protections (divergence) per iteration:      0.001 times
  Total SVARS touched:                                    385

  Total wall-clock time:                             1903.020 sec

Transcript Stop Time:  14:19:44, 22 Oct 2022 Türkiye Standart Saati 
Total Transcript Time: 33 Minute 9 Second.

Transcript file has been opened in append mode. Time stamp=14:20:09, 22 Oct 2022 Türkiye Standart Saati.
Transcript Start Time:  14:20:09, 22 Oct 2022 Türkiye Standart Saati 
Current Directory: "C:\Users\akten\Desktop\MST_UUV_2022\Barbaros USV\Barbaros_analiz"

Build Time: May 27 2022 08:52:58 EDT 
Executable Path: D:/Ansys/ANSYS Inc/ANSYS Student/v222/fluent/ntbin/win64/fluent.exe

-------------------------------------------------------------------------------
ID    Hostname  Core  O.S.         PID    Vendor                           
-------------------------------------------------------------------------------
n3    Akten     4/12  Windows-x64  6908   Intel(R) Core(TM) i7-10750H      
n2    Akten     3/12  Windows-x64  16148  Intel(R) Core(TM) i7-10750H      
n1    Akten     2/12  Windows-x64  15684  Intel(R) Core(TM) i7-10750H      
n0*   Akten     1/12  Windows-x64  17424  Intel(R) Core(TM) i7-10750H      
host  Akten           Windows-x64  14432  Intel(R) Core(TM) i7-10750H      

MPI Option Selected: intel
Selected system interconnect: default
-------------------------------------------------------------------------------

Cortex Process ID: 16724 
License Server Path: () 
Fast-loading "D:\Ansys\ANSYS Inc\ANSYS Student\v222\fluent\fluent22.2.0\\addons\afd\lib\hdfio.bin"
Done.
Multicore SMT processors detected. Processor affinity set!

Reading from Akten:"C:\Users\akten\Desktop\MST_UUV_2022\Barbaros USV\Barbaros_analiz\Analiz_files\dp0\FFF-3\Fluent\SYS.1-5.cas.h5" in NODE0 mode ...
  Reading mesh ...
      442793 cells,     1 cell zone  ...
         442793 tetrahedral cells,  zone id: 3
      957660 faces,     6 face zones ...
          11186 triangular wall faces,  zone id: 1
         813512 triangular interior faces,  zone id: 2
           1372 triangular pressure-inlet faces,  zone id: 6
           1348 triangular pressure-outlet faces,  zone id: 7
           8028 triangular wall faces,  zone id: 8
         122214 triangular wall faces,  zone id: 9
      112903 nodes,     1 node zone  ...
  Done.


Building...
     mesh
	distributing mesh
		parts....,
		faces....,
		nodes....,
		cells....,
        bandwidth reduction using Reverse Cuthill-McKee: 110852/6502 = 17.0489
     materials,
     interface,
     domains,
	mixture
	phase-1
	phase-2
	interaction
     zones,
	solid  (phase-2)
	wall-solid  (phase-2)
	interior-solid  (phase-2)
	outlet  (phase-2)
	wall  (phase-2)
	hull  (phase-2)
	solid  (phase-1)
	wall-solid  (phase-1)
	interior-solid  (phase-1)
	outlet  (phase-1)
	wall  (phase-1)
	hull  (phase-1)
	inlet  (phase-1)
	inlet  (phase-2)
	hull
	wall
	outlet
	interior-solid
	wall-solid
	inlet
	solid
     parallel,
Done.

Preparing mesh for display...
Done.

Reading from Akten:"C:\Users\akten\Desktop\MST_UUV_2022\Barbaros USV\Barbaros_analiz\Analiz_files\dp0\FFF-3\Fluent\SYS.1-5-00972.dat.h5" in NODE0 mode ...


  Reading results.
Parallel variables...

 turbulent viscosity limited to viscosity ratio of 1.000000e+05 in 420676 cells 
Done.

  iter  continuity  x-velocity  y-velocity  z-velocity           k       omega  vf-phase-2     time/iter
   972  5.1033e+01  1.1531e-03  1.1364e-03  1.0618e-03  6.5875e-03  4.7218e-03  6.5381e-04  0:00:00 1028

 turbulent viscosity limited to viscosity ratio of 1.000000e+05 in 420676 cells 

 turbulent viscosity limited to viscosity ratio of 1.000000e+05 in 420676 cells 

 Reversed flow on 1085 faces of pressure-inlet 6.

 turbulent viscosity limited to viscosity ratio of 1.000000e+05 in 420687 cells 

 Reversed flow on 613 faces of pressure-outlet 7.
   973  1.1822e+02  1.1547e-03  1.1367e-03  1.0619e-03  7.0309e-03  1.7939e-02  6.4244e-04  1:08:28 1027

 turbulent viscosity limited to viscosity ratio of 1.000000e+05 in 420687 cells 

 Reversed flow on 1075 faces of pressure-inlet 6.

 turbulent viscosity limited to viscosity ratio of 1.000000e+05 in 420696 cells 

 Reversed flow on 749 faces of pressure-outlet 7.
   974  6.2732e+02  3.3530e-03  3.3044e-03  2.8891e-03  7.7696e-03  4.0272e-02  6.3753e-04  1:01:34 1026

 turbulent viscosity limited to viscosity ratio of 1.000000e+05 in 420696 cells 

 Reversed flow on 1074 faces of pressure-inlet 6.

 turbulent viscosity limited to viscosity ratio of 1.000000e+05 in 420703 cells 

 Reversed flow on 787 faces of pressure-outlet 7.
   975  6.6440e+02  3.1373e-03  3.1125e-03  2.5662e-03  7.1415e-03  2.6521e-02  6.3560e-04  0:56:02 1025

 turbulent viscosity limited to viscosity ratio of 1.000000e+05 in 420703 cells 

 Reversed flow on 1073 faces of pressure-inlet 6.

 turbulent viscosity limited to viscosity ratio of 1.000000e+05 in 420697 cells 

 Reversed flow on 821 faces of pressure-outlet 7.
   976  4.6429e+02  2.8146e-03  2.8493e-03  2.3041e-03  7.8326e-03  2.5847e-02  6.3253e-04  0:48:12 1024

 turbulent viscosity limited to viscosity ratio of 1.000000e+05 in 420697 cells 

 Reversed flow on 1070 faces of pressure-inlet 6.

 turbulent viscosity limited to viscosity ratio of 1.000000e+05 in 420711 cells 

 Reversed flow on 848 faces of pressure-outlet 7.
   977  2.6419e+02  2.5937e-03  2.5957e-03  2.0818e-03  7.9607e-03  2.0296e-02  6.3125e-04  0:45:20 1023

 turbulent viscosity limited to viscosity ratio of 1.000000e+05 in 420711 cells 

 Reversed flow on 1069 faces of pressure-inlet 6.

 turbulent viscosity limited to viscosity ratio of 1.000000e+05 in 420721 cells 

 Reversed flow on 857 faces of pressure-outlet 7.
   978  2.4551e+02  2.3427e-03  2.3524e-03  1.8602e-03  7.2817e-03  1.5563e-02  6.3008e-04  0:46:27 1022

 turbulent viscosity limited to viscosity ratio of 1.000000e+05 in 420721 cells 

 Reversed flow on 1068 faces of pressure-inlet 6.

 turbulent viscosity limited to viscosity ratio of 1.000000e+05 in 420730 cells 

 Reversed flow on 854 faces of pressure-outlet 7.
   979  2.7289e+02  2.2027e-03  2.1824e-03  1.7423e-03  6.8296e-03  1.1055e-02  6.2912e-04  0:43:56 1021

 turbulent viscosity limited to viscosity ratio of 1.000000e+05 in 420730 cells 

 Reversed flow on 1067 faces of pressure-inlet 6.

 turbulent viscosity limited to viscosity ratio of 1.000000e+05 in 420744 cells 

 Reversed flow on 846 faces of pressure-outlet 7.
   980  2.6925e+02  2.1026e-03  2.0371e-03  1.6795e-03  6.6252e-03  8.2750e-03  6.2842e-04  0:41:55 1020

 turbulent viscosity limited to viscosity ratio of 1.000000e+05 in 420744 cells 

 Reversed flow on 1066 faces of pressure-inlet 6.

 turbulent viscosity limited to viscosity ratio of 1.000000e+05 in 420755 cells 

 Reversed flow on 831 faces of pressure-outlet 7.
   981  2.7625e+02  2.0453e-03  1.9387e-03  1.6698e-03  6.5847e-03  7.0702e-03  6.2810e-04  0:40:17 1019

 turbulent viscosity limited to viscosity ratio of 1.000000e+05 in 420755 cells 

 Reversed flow on 1066 faces of pressure-inlet 6.

 turbulent viscosity limited to viscosity ratio of 1.000000e+05 in 420761 cells 

 Reversed flow on 828 faces of pressure-outlet 7.
   982  2.6807e+02  2.0032e-03  1.8748e-03  1.6693e-03  6.6099e-03  7.3236e-03  6.2763e-04  0:35:36 1018

 turbulent viscosity limited to viscosity ratio of 1.000000e+05 in 420761 cells 

 Reversed flow on 1065 faces of pressure-inlet 6.

 turbulent viscosity limited to viscosity ratio of 1.000000e+05 in 420769 cells 

 Reversed flow on 821 faces of pressure-outlet 7.

  iter  continuity  x-velocity  y-velocity  z-velocity           k       omega  vf-phase-2     time/iter
   983  2.5048e+02  1.9465e-03  1.8111e-03  1.6555e-03  6.5728e-03  6.9801e-03  6.2695e-04  0:35:14 1017

 turbulent viscosity limited to viscosity ratio of 1.000000e+05 in 420769 cells 

 Reversed flow on 1065 faces of pressure-inlet 6.

 turbulent viscosity limited to viscosity ratio of 1.000000e+05 in 420785 cells 

 Reversed flow on 816 faces of pressure-outlet 7.
   984  2.2795e+02  1.8790e-03  1.7448e-03  1.6230e-03  6.5410e-03  6.5616e-03  6.2604e-04  0:34:56 1016

 turbulent viscosity limited to viscosity ratio of 1.000000e+05 in 420785 cells 

 Reversed flow on 1065 faces of pressure-inlet 6.

 turbulent viscosity limited to viscosity ratio of 1.000000e+05 in 420798 cells 

 Reversed flow on 809 faces of pressure-outlet 7.
   985  2.0651e+02  1.8087e-03  1.6896e-03  1.5842e-03  6.5196e-03  6.1418e-03  6.2478e-04  0:34:41 1015

 turbulent viscosity limited to viscosity ratio of 1.000000e+05 in 420798 cells 

 Reversed flow on 1066 faces of pressure-inlet 6.

 turbulent viscosity limited to viscosity ratio of 1.000000e+05 in 420823 cells 

 Reversed flow on 795 faces of pressure-outlet 7.
   986  1.8788e+02  1.7336e-03  1.6293e-03  1.5406e-03  6.4729e-03  5.6995e-03  6.2333e-04  0:34:29 1014

 turbulent viscosity limited to viscosity ratio of 1.000000e+05 in 420823 cells 

 Reversed flow on 1067 faces of pressure-inlet 6.

 turbulent viscosity limited to viscosity ratio of 1.000000e+05 in 420839 cells 

 Reversed flow on 781 faces of pressure-outlet 7.
   987  1.7194e+02  1.6603e-03  1.5721e-03  1.4963e-03  6.4485e-03  5.5144e-03  6.2193e-04  0:30:56 1013

 turbulent viscosity limited to viscosity ratio of 1.000000e+05 in 420839 cells 

 Reversed flow on 1067 faces of pressure-inlet 6.

 turbulent viscosity limited to viscosity ratio of 1.000000e+05 in 420852 cells 

 Reversed flow on 767 faces of pressure-outlet 7.
   988  1.5507e+02  1.5998e-03  1.5227e-03  1.4579e-03  6.4293e-03  5.5093e-03  6.2051e-04  0:31:28 1012

 turbulent viscosity limited to viscosity ratio of 1.000000e+05 in 420852 cells 

 Reversed flow on 1066 faces of pressure-inlet 6.

 turbulent viscosity limited to viscosity ratio of 1.000000e+05 in 420880 cells 

 Reversed flow on 757 faces of pressure-outlet 7.
   989  1.3884e+02  1.5521e-03  1.4816e-03  1.4234e-03  6.4104e-03  5.5885e-03  6.1923e-04  0:31:53 1011

 turbulent viscosity limited to viscosity ratio of 1.000000e+05 in 420880 cells 

 Reversed flow on 1066 faces of pressure-inlet 6.

 turbulent viscosity limited to viscosity ratio of 1.000000e+05 in 420906 cells 

 Reversed flow on 741 faces of pressure-outlet 7.
   990  1.3368e+02  1.5015e-03  1.4512e-03  1.3972e-03  6.3854e-03  5.5313e-03  6.1793e-04  0:32:13 1010

 turbulent viscosity limited to viscosity ratio of 1.000000e+05 in 420906 cells 

 Reversed flow on 1066 faces of pressure-inlet 6.

 turbulent viscosity limited to viscosity ratio of 1.000000e+05 in 420921 cells 

 Reversed flow on 733 faces of pressure-outlet 7.
   991  1.2748e+02  1.4629e-03  1.4211e-03  1.3771e-03  6.3700e-03  5.4531e-03  6.1678e-04  0:29:07 1009

 turbulent viscosity limited to viscosity ratio of 1.000000e+05 in 420921 cells 

 Reversed flow on 1066 faces of pressure-inlet 6.

 turbulent viscosity limited to viscosity ratio of 1.000000e+05 in 420930 cells 

 Reversed flow on 728 faces of pressure-outlet 7.

Interrupting...
   992  1.1858e+02  1.4349e-03  1.3946e-03  1.3571e-03  6.3526e-03  5.4054e-03  6.1562e-04  0:29:59 1008
Done.
Registering ReportDefFiles, ("C:\Users\akten\Desktop\MST_UUV_2022\Barbaros USV\Barbaros_analiz\Analiz_files\dp0\FFF-3\Fluent\.\\report-def-0-rfile.out")
Writing "| gzip -2cf > SolutionMonitor.gz"...
Writing temporary file C:\\Users\\akten\\AppData\\Local\\Temp\\flntgz-144322 ...
Done.


Writing to Akten:"C:\Users\akten\Desktop\MST_UUV_2022\Barbaros USV\Barbaros_analiz\Analiz_files\dp0\FFF-3\Fluent\SYS.1-5-00992.dat.h5" in NODE0 mode and compression level 1 ...
  Writing results.
Done.

Performance Timer for 20 iterations on 4 compute nodes
  Average wall-clock time per iteration:                1.893 sec
  Global reductions per iteration:                        143 ops
  Global reductions time per iteration:                 0.000 sec (0.0%)
  Message count per iteration:                           9328 messages
  Data transfer per iteration:                         11.279 MB
  LE solves per iteration:                                  4 solves
  LE wall-clock time per iteration:                     0.976 sec (51.6%)
  LE global solves per iteration:                           6 solves
  LE global wall-clock time per iteration:              0.001 sec (0.1%)
  LE global matrix maximum size:                           83
  AMG cycles per iteration:                             6.650 cycles
  Relaxation sweeps per iteration:                       1546 sweeps
  Relaxation exchanges per iteration:                       0 exchanges
  LE early protections (stall) per iteration:           0.000 times
  LE early protections (divergence) per iteration:      0.000 times
  Total SVARS touched:                                    383

  Total wall-clock time:                               37.856 sec

Transcript Stop Time:  14:21:07, 22 Oct 2022 Türkiye Standart Saati 
Total Transcript Time: 0 Minute 58 Second.
